data_IRMOF-1_PM
_symmetry_space_group_name_H-M	'P1'
_cell_length_a	8.0
_cell_length_b	8.0
_cell_length_c	8.0
_cell_angle_alpha	90.000000
_cell_angle_beta	90.000000
_cell_angle_gamma	90.000000
_symmetry_Int_Tables_number 1

loop_
_symmetry_equiv_pos_as_xyz
'x,y,z'

loop_
_atom_site_label
_atom_site_type_symbol
_atom_site_fract_x
_atom_site_fract_y
_atom_site_fract_z
C C 0.11 0.1 0.0
C C 0.1 0.9 0.01
C C 0.9 0.1 0.05
H H 0.8 0.1 0.0
C C 0.9 0.9 0.08
