data_NiPyC2_P1_vc-relax_PM
_symmetry_space_group_name_H-M	'P1'
_cell_length_a	6.798297
_cell_length_b	10.766654
_cell_length_c	11.185882
_cell_angle_alpha	90.000000
_cell_angle_beta	91.165861
_cell_angle_gamma	90.000000
_symmetry_Int_Tables_number 1

loop_
_symmetry_equiv_pos_as_xyz
'x,y,z'

loop_
_atom_site_label
_atom_site_type_symbol
_atom_site_fract_x
_atom_site_fract_y
_atom_site_fract_z
Ni21	Ni2	0.494372	0.753273	0.835975
O1	O	0.223112	0.356985	0.377593
O2	O	0.775066	0.133053	0.367302
O3	O	0.942168	0.369223	0.466732
O4	O	0.055059	0.116543	0.463030
N1	N	0.609493	0.858674	0.713787
N2	N	0.380380	0.643897	0.716429
C1	C	0.582526	0.974661	0.532648
H1	H	0.490916	1.011460	0.460293
C2	C	0.784697	0.999468	0.540531
C3	C	0.898543	0.952151	0.635506
H2	H	0.055390	0.970687	0.644593
C4	C	0.408123	0.520522	0.541181
H3	H	0.498454	0.481809	0.471466
C5	C	0.491536	0.597288	0.628599
H4	H	0.646989	0.622154	0.630158
C6	C	0.498478	0.902987	0.622101
H5	H	0.342038	0.880548	0.622135
C7	C	0.804848	0.880746	0.721538
H6	H	0.884018	0.840180	0.797532
C8	C	0.186055	0.619749	0.722203
H7	H	0.107393	0.662916	0.795144
C9	C	0.093248	0.542966	0.637993
H8	H	0.937211	0.522776	0.645052
C10	C	0.207396	0.493111	0.547347
C11	C	0.874095	0.082442	0.454081
C12	C	0.121325	0.406353	0.461570
Ni11	Ni1	1.000579	0.246042	0.339584
O5	O	0.724362	0.643290	0.874915
O6	O	0.270545	0.866197	0.868447
O7	O	0.444952	0.628503	0.964442
O8	O	0.553551	0.881629	0.960891
N3	N	0.115875	0.141054	0.216545
N4	N	0.886260	0.356960	0.217862
C13	C	0.084363	0.024940	0.035582
H9	H	-0.009233	-0.011352	0.963927
C14	C	0.286487	-0.000375	0.041685
C15	C	0.402656	0.047161	0.135542
H10	H	0.559734	0.028809	0.143228
C16	C	0.914728	0.480685	0.042060
H11	H	1.006685	0.518794	0.972775
C17	C	0.997438	0.403925	0.130199
H12	H	0.153010	0.379320	0.132014
C18	C	0.002740	0.096623	0.125867
H13	H	0.846491	0.119027	0.127362
C19	C	0.311252	0.118889	0.222338
H14	H	0.392644	0.159579	0.297449
C20	C	0.691892	0.381483	0.222439
H15	H	0.612050	0.338592	0.295041
C21	C	0.599646	0.458100	0.137567
H16	H	0.443313	0.477673	0.143952
C22	C	0.713658	0.508032	0.046749
C23	C	0.372799	0.916268	0.954280
C24	C	0.625398	0.593529	0.959598
