data_IRMOF-1_one_ring_find_2-!-p-phenylene_replace_2-acetylamido-p-phenylene_PM
_symmetry_space_group_name_H-M	'P1'
_cell_length_a	25.832000
_cell_length_b	25.832000
_cell_length_c	25.832000
_cell_angle_alpha	90.000000
_cell_angle_beta	90.000000
_cell_angle_gamma	90.000000
_symmetry_Int_Tables_number 1

loop_
_symmetry_equiv_pos_as_xyz
'x,y,z'

loop_
_atom_site_label
_atom_site_type_symbol
_atom_site_fract_x
_atom_site_fract_y
_atom_site_fract_z
Zn1	Zn	1.000000	0.388889	0.611111
Zn2	Zn	0.793380	0.928842	0.984398
Zn3	Zn	0.793380	0.015602	0.071158
Zn4	Zn	0.706620	0.928842	0.071158
O1	O	0.750000	0.972222	0.027778
O2	O	0.718130	0.004092	0.911778
O3	O	0.866000	0.940352	0.995908
O4	O	0.781870	0.088222	0.059648
O5	O	0.718130	0.940352	0.143778
O6	O	0.866000	0.004092	0.059648
O7	O	0.781870	0.856222	0.995908
O8	O	0.781870	0.004092	0.143778
O9	O	0.634000	0.940352	0.059648
O10	O	0.718130	0.088222	0.995908
O11	O	0.781870	0.940352	0.911778
O12	O	0.634000	0.004092	0.995908
C1	C	0.750000	0.972222	0.889078
C2	C	0.888700	0.972222	0.027778
C3	C	0.750000	0.110922	0.027778
C4	C	0.750000	0.972222	0.166478
C5	C	0.611300	0.972222	0.027778
C6	C	0.750000	0.972222	0.831578
C7	C	0.946200	0.972222	0.027778
C8	C	0.750000	0.168422	0.027778
C9	C	0.750000	0.972222	0.223978
C10	C	0.717100	0.005122	0.804678
C11	C	0.973100	0.939322	0.994878
C12	C	0.782900	0.195322	0.060678
C13	C	0.717100	0.939322	0.250878
C14	C	0.973100	0.005122	0.060678
C15	C	0.782900	0.005122	0.250878
C16	C	0.717100	0.195322	0.994878
C17	C	0.782900	0.939322	0.804678
H1	H	0.695100	0.027122	0.822578
H2	H	0.955200	0.917322	0.972878
H3	H	0.804900	0.177422	0.082678
H4	H	0.695100	0.917322	0.232978
H5	H	0.955200	0.027122	0.082678
H6	H	0.804900	0.027122	0.232978
H7	H	0.695100	0.177422	0.972878
H8	H	0.804900	0.917322	0.822578
C18	C	0.966644	0.553028	0.402427
C19	C	0.966803	0.571885	0.390110
C20	C	0.997525	0.591078	0.407643
C21	C	0.974478	0.536497	0.410357
C22	C	0.980797	0.576812	0.409886
N1	N	0.034995	0.568120	0.420236
C23	C	0.079147	0.580971	0.422431
C24	C	0.971587	0.579749	0.415077
C25	C	0.974418	0.568306	0.384194
H9	H	0.974322	0.538479	0.391291
H10	H	0.926457	0.578785	0.381007
H11	H	0.033477	0.609908	0.391665
H12	H	0.053948	0.541089	0.398362
O13	O	0.075208	0.600701	0.418571
H13	H	0.133904	0.550692	0.432521
H14	H	0.143756	0.553066	0.466638
H15	H	0.144718	0.615747	0.455123

loop_
_geom_bond_atom_site_label_1
_geom_bond_atom_site_label_2
_geom_bond_distance
O2	C1	0.05046
O3	C2	0.05046
O4	C3	0.05046
O5	C4	0.05046
O6	C2	0.05046
O8	C4	0.05046
O9	C5	0.05046
O10	C3	0.05046
O11	C1	0.05046
O12	C5	0.05046
C1	C6	0.05750
C2	C7	0.05750
C3	C8	0.05750
C4	C9	0.05750
C6	C10	0.05374
C6	C17	0.05374
C7	C11	0.05374
C7	C14	0.05374
C8	C12	0.05374
C8	C16	0.05374
C9	C13	0.05374
C9	C15	0.05374
C10	H1	0.03589
C11	H2	0.03589
C12	H3	0.03589
C13	H4	0.03589
C14	H5	0.03589
C15	H6	0.03589
C16	H7	0.03589
C17	H8	0.03589
C18	C19	0.02252
C18	C20	0.04928
C18	C21	0.01994
C18	C22	0.02866
C18	N1	0.07223
C18	C24	0.02997
C18	C25	0.02503
C18	H9	0.01987
C18	H10	0.05232
C19	C20	0.04024
C19	C21	0.04149
C19	C22	0.02472
C19	C24	0.02661
C19	H9	0.03426
C19	H10	0.04193
C20	C21	0.05931
C20	C22	0.02210
C20	N1	0.04571
C20	C24	0.02926
C20	C25	0.04003
C20	H9	0.05977
C20	H11	0.04362
C21	C22	0.04081
C21	N1	0.06899
C21	C24	0.04361
C21	C25	0.04119
C21	H9	0.01917
C21	H10	0.07040
C22	N1	0.05586
C22	C25	0.02780
C22	H9	0.04309
C22	H10	0.06157
C22	H11	0.06483
N1	C23	0.04604
N1	C24	0.06467
N1	C25	0.07049
N1	H9	0.07347
N1	H11	0.05065
N1	H12	0.03960
N1	O13	0.05178
C23	H11	0.06221
C23	H12	0.05296
C23	O13	0.02049
C23	H13	0.06338
C24	C25	0.03306
C24	H9	0.04771
C24	H10	0.05655
C24	H11	0.07272
C25	H9	0.03066
C25	H10	0.04920
C25	H11	0.07263
H13	H14	0.03559
