data_new_xtal_PM
_symmetry_space_group_name_H-M    'P1'
_cell_length_a    9.994267
_cell_length_b    15.905900
_cell_length_c    25.764600
_cell_angle_alpha    91.487900
_cell_angle_beta    91.035500
_cell_angle_gamma    91.677500
_symmetry_Int_Tables_number 1

loop_
_symmetry_equiv_pos_as_xyz
'x,y,z'

loop_
_atom_site_label
_atom_site_type_symbol
_atom_site_fract_x
_atom_site_fract_y
_atom_site_fract_z
C1    C    0.508308    0.987972    0.960345
C2    C    0.539946    0.911944    0.933687
C3    C    0.536337    0.904450    0.878959
C4    C    0.510069    0.975743    0.849881
C5    C    0.486112    0.054063    0.874326
C6    C    0.479434    0.057935    0.929042
C7    C    0.508279    0.993931    0.016549
C8    C    0.479393    0.922889    0.047427
C9    C    0.486067    0.927012    0.102241
C10    C    0.509920    0.006241    0.127036
C11    C    0.536217    0.078514    0.098345
C12    C    0.539925    0.071142    0.043671
C13    C    0.515577    0.393933    0.739228
C14    C    0.550743    0.545037    0.754850
C15    C    0.509479    0.626611    0.741492
C16    C    0.524948    0.696178    0.776157
C17    C    0.582777    0.687562    0.826207
C18    C    0.631098    0.608135    0.839039
C19    C    0.618087    0.539473    0.803681
C20    C    0.457067    0.376483    0.787863
C21    C    0.449279    0.294854    0.807519
C22    C    0.494070    0.225469    0.778059
C23    C    0.542278    0.240496    0.727790
C24    C    0.553251    0.322634    0.709075
C25    C    0.495628    0.143508    0.797479
C26    C    0.589144    0.754069    0.863483
C27    C    0.515682    0.588313    0.237758
C28    C    0.550660    0.438514    0.222631
C29    C    0.509340    0.355409    0.235389
C30    C    0.524858    0.286396    0.200974
C31    C    0.582568    0.297166    0.151748
C32    C    0.630835    0.378400    0.139594
C33    C    0.617878    0.446585    0.174756
C34    C    0.456958    0.603583    0.188305
C35    C    0.449058    0.684925    0.168548
C36    C    0.493996    0.755986    0.198632
C37    C    0.542558    0.742738    0.249557
C38    C    0.553483    0.661019    0.268443
C39    C    0.495303    0.838032    0.179263
C40    C    0.588969    0.230875    0.114581
H1    H    0.564634    0.860353    0.954065
H2    H    0.455940    0.114217    0.946070
H3    H    0.510251    0.970144    0.810282
H4    H    0.455906    0.865727    0.030056
H5    H    0.510020    0.011857    0.166638
H6    H    0.564606    0.123656    0.023655
H7    H    0.459946    0.635545    0.707097
H8    H    0.677043    0.599428    0.874268
H9    H    0.659786    0.484420    0.814257
H10    H    0.487733    0.752366    0.765100
H11    H    0.596492    0.330032    0.673760
H12    H    0.418202    0.423841    0.809934
H13    H    0.409556    0.286733    0.843442
H14    H    0.576579    0.192143    0.705134
H15    H    0.527971    0.096444    0.773489
H16    H    0.620695    0.742992    0.900613
H17    H    0.460095    0.344631    0.269126
H18    H    0.676727    0.388813    0.105023
H19    H    0.659577    0.503191    0.164773
H20    H    0.487743    0.228808    0.211518
H21    H    0.596873    0.655223    0.304361
H22    H    0.417953    0.554777    0.165696
H23    H    0.409092    0.691566    0.132084
H24    H    0.576750    0.792391    0.272723
H25    H    0.528052    0.886224    0.203707
H26    H    0.620500    0.243123    0.077908
N1    N    0.553231    0.151277    0.126284
N2    N    0.476400    0.853868    0.128220
N3    N    0.476610    0.126877    0.848228
N4    N    0.553392    0.832332    0.851268
N5    N    0.530865    0.475411    0.721720
N6    N    0.530934    0.507397    0.255483
C41    C    0.412077    0.463934    0.638037
C42    C    0.412827    0.514655    0.337583
C43    C    0.520108    0.511683    0.558915
C44    C    0.515034    0.524873    0.505768
C45    C    0.517621    0.458491    0.471338
C46    C    0.521660    0.471361    0.418231
C47    C    0.638265    0.524080    0.643128
C48    C    0.638845    0.462753    0.335543
N7    N    0.408659    0.475496    0.584040
N8    N    0.526990    0.487812    0.668423
N9    N    0.409949    0.503262    0.391568
N10    N    0.634657    0.536426    0.589216
N11    N    0.527398    0.494867    0.308729
N12    N    0.635765    0.450551    0.389440
H27    H    0.329771    0.438095    0.655302
H28    H    0.330406    0.537452    0.319203
H29    H    0.553975    0.579576    0.494401
H30    H    0.557586    0.405855    0.483850
H31    H    0.723010    0.541557    0.664023
H32    H    0.723392    0.448337    0.315789

loop_
_geom_bond_atom_site_label_1
_geom_bond_atom_site_label_2
_geom_bond_distance
C1    C2    0.08656
C1    C6    0.08190
C1    C7    0.05652
C2    C3    0.05536
C2    H1    0.06072
C3    C4    0.08135
C3    N4    0.07911
C4    C5    0.08547
C4    H3    0.03999
C5    C6    0.05526
C5    N3    0.07793
C6    H2    0.06332
C7    C8    0.08267
C7    C12    0.08774
C8    C9    0.05537
C8    H4    0.06419
C9    C10    0.08638
C9    N2    0.07822
C10    C11    0.08209
C10    H5    0.04000
C11    C12    0.05529
C11    N1    0.07978
C12    H6    0.06138
C13    C20    0.07806
C13    C24    0.08609
C13    N5    0.08473
C14    C15    0.09239
C14    C19    0.08337
C14    N5    0.07963
C15    C16    0.07925
C15    H7    0.06096
C16    C17    0.07696
C16    H10    0.06830
C17    C18    0.09385
C17    C26    0.07651
C18    C19    0.07832
C18    H8    0.05855
C19    H9    0.06987
C20    C21    0.08432
C20    H12    0.06512
C21    C22    0.08768
C21    H13    0.05417
C22    C23    0.07125
C22    C25    0.08424
C23    C24    0.08495
C23    H14    0.06347
C24    H11    0.05632
C25    H15    0.06194
C25    N3    0.05669
C26    H16    0.04997
C26    N4    0.08691
C27    C34    0.07828
C27    C38    0.08750
C27    N6    0.08423
C28    C29    0.09368
C28    C33    0.08292
C28    N6    0.07882
C29    C30    0.07866
C29    H17    0.06066
C30    C31    0.07661
C30    H20    0.06932
C31    C32    0.09527
C31    C40    0.07627
C32    C33    0.07780
C32    H18    0.05839
C33    H19    0.07101
C34    C35    0.08408
C34    H22    0.06644
C35    C36    0.08930
C35    H23    0.05451
C36    C37    0.07160
C36    C39    0.08431
C37    C38    0.08458
C37    H24    0.06458
C38    H21    0.05662
C39    H25    0.06319
C39    N2    0.05669
C40    H26    0.04989
C40    N1    0.08803
C41    N7    0.05533
C41    N8    0.12124
C41    H27    0.08798
C42    N9    0.05525
C42    N11    0.11979
C42    H28    0.08747
C43    C44    0.05499
C43    N7    0.11984
C43    N10    0.12104
C44    C45    0.07482
C44    H29    0.06810
C45    C46    0.05479
C45    H30    0.06726
C46    N9    0.11920
C46    N12    0.11951
C47    N8    0.11974
C47    N10    0.05542
C47    H31    0.08902
C48    N11    0.11904
C48    N12    0.05535
C48    H32    0.08801
