data_diamond_PM
_symmetry_space_group_name_H-M    'P1'
_cell_length_a    7.134000
_cell_length_b    7.134000
_cell_length_c    7.134000
_cell_angle_alpha    90.000000
_cell_angle_beta    90.000000
_cell_angle_gamma    90.000000
_symmetry_Int_Tables_number 1

loop_
_symmetry_equiv_pos_as_xyz
'x,y,z'

loop_
_atom_site_label
_atom_site_type_symbol
_atom_site_fract_x
_atom_site_fract_y
_atom_site_fract_z
C1    C    0.125000    0.125000    0.125000
C2    C    0.000000    0.000000    0.000000
C3    C    0.125000    0.375000    0.375000
C4    C    0.000000    0.250000    0.250000
C5    C    0.375000    0.125000    0.375000
C6    C    0.250000    0.000000    0.250000
C7    C    0.375000    0.375000    0.125000
C8    C    0.250000    0.250000    0.000000
C9    C    0.125000    0.125000    0.625000
C10    C    0.000000    0.000000    0.500000
C11    C    0.125000    0.375000    0.875000
C12    C    0.000000    0.250000    0.750000
C13    C    0.375000    0.125000    0.875000
C14    C    0.250000    0.000000    0.750000
C15    C    0.375000    0.375000    0.625000
C16    C    0.250000    0.250000    0.500000
C17    C    0.125000    0.625000    0.125000
C18    C    0.000000    0.500000    0.000000
C19    C    0.125000    0.875000    0.375000
C20    C    0.000000    0.750000    0.250000
C21    C    0.375000    0.625000    0.375000
C22    C    0.250000    0.500000    0.250000
C23    C    0.375000    0.875000    0.125000
C24    C    0.250000    0.750000    0.000000
C25    C    0.125000    0.625000    0.625000
C26    C    0.000000    0.500000    0.500000
C27    C    0.125000    0.875000    0.875000
C28    C    0.000000    0.750000    0.750000
C29    C    0.375000    0.625000    0.875000
C30    C    0.250000    0.500000    0.750000
C31    C    0.375000    0.875000    0.625000
C32    C    0.250000    0.750000    0.500000
C33    C    0.625000    0.125000    0.125000
C34    C    0.500000    0.000000    0.000000
C35    C    0.625000    0.375000    0.375000
C36    C    0.500000    0.250000    0.250000
C37    C    0.875000    0.125000    0.375000
C38    C    0.750000    0.000000    0.250000
C39    C    0.875000    0.375000    0.125000
C40    C    0.750000    0.250000    0.000000
C41    C    0.625000    0.125000    0.625000
C42    C    0.500000    0.000000    0.500000
C43    C    0.625000    0.375000    0.875000
C44    C    0.500000    0.250000    0.750000
C45    C    0.875000    0.125000    0.875000
C46    C    0.750000    0.000000    0.750000
C47    C    0.875000    0.375000    0.625000
C48    C    0.750000    0.250000    0.500000
C49    C    0.625000    0.625000    0.125000
C50    C    0.500000    0.500000    0.000000
C51    C    0.625000    0.875000    0.375000
C52    C    0.500000    0.750000    0.250000
C53    C    0.875000    0.625000    0.375000
C54    C    0.750000    0.500000    0.250000
C55    C    0.875000    0.875000    0.125000
C56    C    0.750000    0.750000    0.000000
C57    C    0.625000    0.625000    0.625000
C58    C    0.500000    0.500000    0.500000
C59    C    0.625000    0.875000    0.875000
C60    C    0.500000    0.750000    0.750000
C61    C    0.875000    0.625000    0.875000
C62    C    0.750000    0.500000    0.750000
C63    C    0.875000    0.875000    0.625000
C64    C    0.750000    0.750000    0.500000

loop_
_geom_bond_atom_site_label_1
_geom_bond_atom_site_label_2
_geom_bond_distance
C1    C2    0.21651
C1    C4    0.21651
C1    C6    0.21651
C1    C8    0.21651
C2    C27    0.21651
C2    C45    0.21651
C2    C55    0.21651
C3    C4    0.21651
C3    C16    0.21651
C3    C22    0.21651
C3    C26    0.21651
C4    C37    0.21651
C4    C39    0.21651
C5    C6    0.21651
C5    C16    0.21651
C5    C36    0.21651
C5    C42    0.21651
C6    C19    0.21651
C6    C23    0.21651
C7    C8    0.21651
C7    C22    0.21651
C7    C36    0.21651
C7    C50    0.21651
C8    C11    0.21651
C8    C13    0.21651
C9    C10    0.21651
C9    C12    0.21651
C9    C14    0.21651
C9    C16    0.21651
C10    C19    0.21651
C10    C37    0.21651
C10    C63    0.21651
C11    C12    0.21651
C11    C18    0.21651
C11    C30    0.21651
C12    C45    0.21651
C12    C47    0.21651
C13    C14    0.21651
C13    C34    0.21651
C13    C44    0.21651
C14    C27    0.21651
C14    C31    0.21651
C15    C16    0.21651
C15    C30    0.21651
C15    C44    0.21651
C15    C58    0.21651
C17    C18    0.21651
C17    C20    0.21651
C17    C22    0.21651
C17    C24    0.21651
C18    C39    0.21651
C18    C61    0.21651
C19    C20    0.21651
C19    C32    0.21651
C20    C53    0.21651
C20    C55    0.21651
C21    C22    0.21651
C21    C32    0.21651
C21    C52    0.21651
C21    C58    0.21651
C23    C24    0.21651
C23    C34    0.21651
C23    C52    0.21651
C24    C27    0.21651
C24    C29    0.21651
C25    C26    0.21651
C25    C28    0.21651
C25    C30    0.21651
C25    C32    0.21651
C26    C47    0.21651
C26    C53    0.21651
C27    C28    0.21651
C28    C61    0.21651
C28    C63    0.21651
C29    C30    0.21651
C29    C50    0.21651
C29    C60    0.21651
C31    C32    0.21651
C31    C42    0.21651
C31    C60    0.21651
C33    C34    0.21651
C33    C36    0.21651
C33    C38    0.21651
C33    C40    0.21651
C34    C59    0.21651
C35    C36    0.21651
C35    C48    0.21651
C35    C54    0.21651
C35    C58    0.21651
C37    C38    0.21651
C37    C48    0.21651
C38    C51    0.21651
C38    C55    0.21651
C39    C40    0.21651
C39    C54    0.21651
C40    C43    0.21651
C40    C45    0.21651
C41    C42    0.21651
C41    C44    0.21651
C41    C46    0.21651
C41    C48    0.21651
C42    C51    0.21651
C43    C44    0.21651
C43    C50    0.21651
C43    C62    0.21651
C45    C46    0.21651
C46    C59    0.21651
C46    C63    0.21651
C47    C48    0.21651
C47    C62    0.21651
C49    C50    0.21651
C49    C52    0.21651
C49    C54    0.21651
C49    C56    0.21651
C51    C52    0.21651
C51    C64    0.21651
C53    C54    0.21651
C53    C64    0.21651
C55    C56    0.21651
C56    C59    0.21651
C56    C61    0.21651
C57    C58    0.21651
C57    C60    0.21651
C57    C62    0.21651
C57    C64    0.21651
C59    C60    0.21651
C61    C62    0.21651
C63    C64    0.21651
