data_new_xtal_PM
_symmetry_space_group_name_H-M    'P1'
_cell_length_a    13.715000
_cell_length_b    13.715000
_cell_length_c    7.952260
_cell_angle_alpha    90.000000
_cell_angle_beta    90.000000
_cell_angle_gamma    90.000000
_symmetry_Int_Tables_number 1

loop_
_symmetry_equiv_pos_as_xyz
'x,y,z'

loop_
_atom_site_label
_atom_site_type_symbol
_atom_site_fract_x
_atom_site_fract_y
_atom_site_fract_z
C1    C    0.000000    0.544700    0.000000
Cu1    Cu    0.000000    0.000000    0.000000
Si1    Si    0.000000    0.000000    0.500000
F1    F    0.000000    0.000000    0.283000
F2    F    0.087800    0.087800    0.500000
H1    H    0.190100    0.190100    0.401200
C2    C    0.229300    0.229300    0.302400
C3    C    0.455300    0.000000    0.000000
F3    F    0.912200    0.087800    0.500000
H2    H    0.809900    0.190100    0.401200
C4    C    0.770700    0.229300    0.302400
C5    C    0.000000    0.455300    0.000000
F4    F    0.912200    0.912200    0.500000
H3    H    0.809900    0.809900    0.401200
C6    C    0.770700    0.770700    0.302400
C7    C    0.544700    0.000000    0.000000
F5    F    0.087800    0.912200    0.500000
H4    H    0.190100    0.809900    0.401200
C8    C    0.229300    0.770700    0.302400
F6    F    0.000000    0.000000    0.717000
H5    H    0.809900    0.809900    0.598800
C9    C    0.770700    0.770700    0.697600
H6    H    0.190100    0.809900    0.598800
C10    C    0.229300    0.770700    0.697600
H7    H    0.190100    0.190100    0.598800
C11    C    0.229300    0.229300    0.697600
H8    H    0.809900    0.190100    0.598800
C12    C    0.770700    0.229300    0.697600
C13    C    0.500000    0.044700    0.500000
Cu2    Cu    0.500000    0.500000    0.500000
Si2    Si    0.500000    0.500000    0.000000
F7    F    0.500000    0.500000    0.783000
F8    F    0.587800    0.587800    0.000000
H9    H    0.690100    0.690100    0.901200
C14    C    0.729300    0.729300    0.802400
C15    C    0.955300    0.500000    0.500000
F9    F    0.412200    0.587800    0.000000
H10    H    0.309900    0.690100    0.901200
C16    C    0.270700    0.729300    0.802400
C17    C    0.500000    0.955300    0.500000
F10    F    0.412200    0.412200    0.000000
H11    H    0.309900    0.309900    0.901200
C18    C    0.270700    0.270700    0.802400
C19    C    0.044700    0.500000    0.500000
F11    F    0.587800    0.412200    0.000000
H12    H    0.690100    0.309900    0.901200
C20    C    0.729300    0.270700    0.802400
F12    F    0.500000    0.500000    0.217000
H13    H    0.309900    0.309900    0.098800
C21    C    0.270700    0.270700    0.197600
H14    H    0.690100    0.309900    0.098800
C22    C    0.729300    0.270700    0.197600
H15    H    0.690100    0.690100    0.098800
C23    C    0.729300    0.729300    0.197600
H16    H    0.309900    0.690100    0.098800
C24    C    0.270700    0.729300    0.197600
C25    C    0.025060    0.300080    0.853101
C26    C    0.022698    0.198971    0.859602
C27    C    0.974940    0.300080    0.146904
C28    C    0.977302    0.198971    0.140403
C29    C    0.000000    0.351906    0.000002
N1    N    1.000000    0.148771    0.000003
H17    H    0.036602    0.336106    0.732594
H18    H    0.035297    0.157302    0.744893
H19    H    0.963398    0.336106    0.267398
H20    H    0.964703    0.157302    0.255100
C30    C    0.699920    0.025060    0.853101
C31    C    0.801029    0.022698    0.859602
C32    C    0.699920    0.974940    0.146904
C33    C    0.801029    0.977302    0.140403
C34    C    0.648094    0.000000    0.000002
N2    N    0.851229    1.000000    0.000003
H21    H    0.663894    0.036602    0.732594
H22    H    0.842698    0.035297    0.744893
H23    H    0.663894    0.963398    0.267398
H24    H    0.842698    0.964703    0.255100
C35    C    0.025060    0.699920    0.853101
C36    C    0.022698    0.801029    0.859602
C37    C    0.974940    0.699920    0.146904
C38    C    0.977302    0.801029    0.140403
C39    C    0.000000    0.648094    0.000002
N3    N    1.000000    0.851229    0.000003
H25    H    0.036602    0.663894    0.732594
H26    H    0.035297    0.842698    0.744893
H27    H    0.963398    0.663894    0.267398
H28    H    0.964703    0.842698    0.255100
C40    C    0.300080    0.025060    0.853101
C41    C    0.198971    0.022698    0.859602
C42    C    0.300080    0.974940    0.146904
C43    C    0.198971    0.977302    0.140403
C44    C    0.351906    0.000000    0.000002
N4    N    0.148771    1.000000    0.000003
H29    H    0.336106    0.036602    0.732594
H30    H    0.157302    0.035297    0.744893
H31    H    0.336106    0.963398    0.267398
H32    H    0.157302    0.964703    0.255100
C45    C    0.474940    0.800080    0.646899
C46    C    0.477302    0.698971    0.640398
C47    C    0.525060    0.800080    0.353096
C48    C    0.522698    0.698971    0.359597
C49    C    0.500000    0.851906    0.499998
N5    N    0.500000    0.648771    0.499997
H33    H    0.463398    0.836106    0.767406
H34    H    0.464703    0.657302    0.755107
H35    H    0.536602    0.836106    0.232602
H36    H    0.535297    0.657302    0.244900
C50    C    0.199920    0.525060    0.353101
C51    C    0.301029    0.522698    0.359602
C52    C    0.199920    0.474940    0.646904
C53    C    0.301029    0.477302    0.640403
C54    C    0.148094    0.500000    0.500002
N6    N    0.351229    0.500000    0.500003
H37    H    0.163894    0.536602    0.232594
H38    H    0.342698    0.535297    0.244893
H39    H    0.163894    0.463398    0.767398
H40    H    0.342698    0.464703    0.755100
C55    C    0.525060    0.199920    0.353101
C56    C    0.522698    0.301029    0.359602
C57    C    0.474940    0.199920    0.646904
C58    C    0.477302    0.301029    0.640403
C59    C    0.500000    0.148094    0.500002
N7    N    0.500000    0.351229    0.500003
H41    H    0.536602    0.163894    0.232594
H42    H    0.535297    0.342698    0.244893
H43    H    0.463398    0.163894    0.767398
H44    H    0.464703    0.342698    0.755100
C60    C    0.800080    0.525060    0.646899
C61    C    0.698971    0.522698    0.640398
C62    C    0.800080    0.474940    0.353096
C63    C    0.698971    0.477302    0.359597
C64    C    0.851906    0.500000    0.499998
N8    N    0.648771    0.500000    0.499997
H45    H    0.836106    0.536602    0.767406
H46    H    0.657302    0.535297    0.755107
H47    H    0.836106    0.463398    0.232602
H48    H    0.657302    0.464703    0.244900

loop_
_geom_bond_atom_site_label_1
_geom_bond_atom_site_label_2
_geom_bond_distance
C1    C5    0.08940
C1    C39    0.10339
Cu1    N1    0.14877
Cu1    N2    0.14877
Cu1    N3    0.14877
Cu1    N4    0.14877
Si1    F1    0.21700
Si1    F2    0.12417
Si1    F3    0.12417
Si1    F4    0.12417
Si1    F5    0.12417
Si1    F6    0.21700
H1    C2    0.11329
C2    C21    0.12005
C3    C7    0.08940
C3    C44    0.10339
H2    C4    0.11329
C4    C22    0.12005
C5    C29    0.10339
H3    C6    0.11329
C6    C23    0.12005
C7    C34    0.10339
H4    C8    0.11329
C8    C24    0.12005
H5    C9    0.11329
C9    C14    0.12005
H6    C10    0.11329
C10    C16    0.12005
H7    C11    0.11329
C11    C18    0.12005
H8    C12    0.11329
C12    C20    0.12005
C13    C17    0.08940
C13    C59    0.10339
Cu2    N5    0.14877
Cu2    N6    0.14877
Cu2    N7    0.14877
Cu2    N8    0.14877
Si2    F7    0.21700
Si2    F8    0.12417
Si2    F9    0.12417
Si2    F10    0.12417
Si2    F11    0.12417
Si2    F12    0.21700
H9    C14    0.11329
C15    C19    0.08940
C15    C64    0.10339
H10    C16    0.11329
C17    C49    0.10339
H11    C18    0.11329
C19    C54    0.10339
H12    C20    0.11329
H13    C21    0.11329
H14    C22    0.11329
H15    C23    0.11329
H16    C24    0.11329
C25    C26    0.10134
C25    C29    0.15778
C25    H17    0.12631
C26    N1    0.15082
C26    H18    0.12269
C27    C28    0.10134
C27    C29    0.15778
C27    H19    0.12629
C28    N1    0.15082
C28    H20    0.12268
C30    C31    0.10134
C30    C34    0.15778
C30    H21    0.12631
C31    N2    0.15082
C31    H22    0.12269
C32    C33    0.10134
C32    C34    0.15778
C32    H23    0.12629
C33    N2    0.15082
C33    H24    0.12268
C35    C36    0.10134
C35    C39    0.15778
C35    H25    0.12631
C36    N3    0.15082
C36    H26    0.12269
C37    C38    0.10134
C37    C39    0.15778
C37    H27    0.12629
C38    N3    0.15082
C38    H28    0.12268
C40    C41    0.10134
C40    C44    0.15778
C40    H29    0.12631
C41    N4    0.15082
C41    H30    0.12269
C42    C43    0.10134
C42    C44    0.15778
C42    H31    0.12629
C43    N4    0.15082
C43    H32    0.12268
C45    C46    0.10134
C45    C49    0.15778
C45    H33    0.12631
C46    N5    0.15082
C46    H34    0.12269
C47    C48    0.10134
C47    C49    0.15778
C47    H35    0.12629
C48    N5    0.15082
C48    H36    0.12268
C50    C51    0.10134
C50    C54    0.15778
C50    H37    0.12631
C51    N6    0.15082
C51    H38    0.12269
C52    C53    0.10134
C52    C54    0.15778
C52    H39    0.12629
C53    N6    0.15082
C53    H40    0.12268
C55    C56    0.10134
C55    C59    0.15778
C55    H41    0.12631
C56    N7    0.15082
C56    H42    0.12269
C57    C58    0.10134
C57    C59    0.15778
C57    H43    0.12629
C58    N7    0.15082
C58    H44    0.12268
C60    C61    0.10134
C60    C64    0.15778
C60    H45    0.12631
C61    N8    0.15082
C61    H46    0.12269
C62    C63    0.10134
C62    C64    0.15778
C62    H47    0.12629
C63    N8    0.15082
C63    H48    0.12268
