data_NiPyC2_relax_PyC-CH3_PM
_symmetry_space_group_name_H-M    'P1'
_cell_length_a    13.596594
_cell_length_b    21.533308
_cell_length_c    22.371764
_cell_angle_alpha    90.000000
_cell_angle_beta    91.165861
_cell_angle_gamma    90.000000
_symmetry_Int_Tables_number 1

loop_
_symmetry_equiv_pos_as_xyz
'x,y,z'

loop_
_atom_site_label
_atom_site_type_symbol
_atom_site_fract_x
_atom_site_fract_y
_atom_site_fract_z
Ni21    Ni2    0.247186    0.376636    0.417988
O1    O    0.111556    0.178492    0.188797
O2    O    0.387533    0.066527    0.183651
O3    O    0.471084    0.184612    0.233366
O4    O    0.027529    0.058271    0.231515
N1    N    0.190190    0.321949    0.358214
H1    H    0.245458    0.005730    0.230147
H2    H    0.027695    0.485343    0.322296
C1    C    0.204062    0.260261    0.270591
H3    H    0.249227    0.240904    0.235733
C2    C    0.245768    0.298644    0.314300
H4    H    0.323495    0.311077    0.315079
C3    C    0.093027    0.309874    0.361102
H5    H    0.053697    0.331458    0.397572
C4    C    0.046624    0.271483    0.318997
H6    H    0.468606    0.261388    0.322526
C5    C    0.103698    0.246556    0.273674
C6    C    0.437047    0.041221    0.227041
C7    C    0.060663    0.203177    0.230785
Ni11    Ni1    0.000290    0.123021    0.169792
O5    O    0.362181    0.321645    0.437457
O6    O    0.135272    0.433098    0.434223
O7    O    0.222476    0.314252    0.482221
O8    O    0.276776    0.440814    0.480446
N2    N    0.057938    0.070527    0.108272
N3    N    0.443130    0.178480    0.108931
C8    C    0.042181    0.012470    0.017791
H7    H    0.495383    0.494324    0.481963
C9    C    0.143243    0.499812    0.020842
C10    C    0.201328    0.023581    0.067771
H8    H    0.279867    0.014405    0.071614
C11    C    0.457364    0.240342    0.021030
H9    H    0.003343    0.259397    0.486387
C12    C    0.498719    0.201962    0.065100
H10    H    0.076505    0.189660    0.066007
C13    C    0.001370    0.048312    0.062934
H11    H    0.423245    0.059513    0.063681
C14    C    0.155626    0.059444    0.111169
H12    H    0.196322    0.079789    0.148725
C15    C    0.345946    0.190742    0.111219
H13    H    0.306025    0.169296    0.147520
C16    C    0.299823    0.229050    0.068783
H14    H    0.221657    0.238837    0.071976
C17    C    0.356829    0.254016    0.023374
C18    C    0.186399    0.458134    0.477140
C19    C    0.312699    0.296764    0.479799
Ni22    Ni2    0.247186    0.376636    0.917987
O9    O    0.111556    0.178492    0.688797
O10    O    0.387533    0.066527    0.683651
O11    O    0.471084    0.184612    0.733366
O12    O    0.027529    0.058271    0.731515
N4    N    0.304746    0.429337    0.856893
N5    N    0.190190    0.321949    0.858214
C20    C    0.291263    0.487330    0.766324
H15    H    0.245458    0.005730    0.730147
C21    C    0.392348    0.499734    0.770266
C22    C    0.449271    0.476075    0.817753
H16    H    0.027695    0.485343    0.822296
C23    C    0.204062    0.260261    0.770590
H17    H    0.249227    0.240904    0.735733
C24    C    0.245768    0.298644    0.814299
H18    H    0.323495    0.311077    0.815079
C25    C    0.249239    0.451493    0.811051
H19    H    0.171019    0.440274    0.811068
C26    C    0.402424    0.440373    0.860769
H20    H    0.442009    0.420090    0.898766
C27    C    0.093027    0.309874    0.861101
H21    H    0.053697    0.331458    0.897572
C28    C    0.046624    0.271483    0.818997
H22    H    0.468606    0.261388    0.822526
C29    C    0.103698    0.246556    0.773674
C30    C    0.437047    0.041221    0.727040
C31    C    0.060663    0.203177    0.730785
Ni12    Ni1    0.000290    0.123021    0.669792
O13    O    0.362181    0.321645    0.937458
O14    O    0.135272    0.433098    0.934223
O15    O    0.222476    0.314252    0.982221
O16    O    0.276776    0.440814    0.980446
N6    N    0.057938    0.070527    0.608272
N7    N    0.443130    0.178480    0.608931
C32    C    0.042181    0.012470    0.517791
H23    H    0.495383    0.494324    0.981963
C33    C    0.143243    0.499812    0.520842
C34    C    0.201328    0.023581    0.567771
H24    H    0.279867    0.014405    0.571614
C35    C    0.457364    0.240342    0.521030
H25    H    0.003343    0.259397    0.986387
C36    C    0.498719    0.201962    0.565099
H26    H    0.076505    0.189660    0.566007
C37    C    0.001370    0.048312    0.562933
H27    H    0.423245    0.059513    0.563681
C38    C    0.155626    0.059444    0.611169
H28    H    0.196322    0.079789    0.648725
C39    C    0.345946    0.190742    0.611220
H29    H    0.306025    0.169296    0.647520
C40    C    0.299823    0.229050    0.568783
H30    H    0.221657    0.238837    0.571976
C41    C    0.356829    0.254016    0.523374
C42    C    0.186399    0.458134    0.977140
C43    C    0.312699    0.296764    0.979799
Ni23    Ni2    0.247186    0.876637    0.417988
O17    O    0.111556    0.678492    0.188797
O18    O    0.471084    0.684612    0.233366
O19    O    0.027529    0.558272    0.231515
N8    N    0.304746    0.929337    0.356893
N9    N    0.190190    0.821948    0.358214
C44    C    0.291263    0.987330    0.266324
C45    C    0.392348    0.999734    0.270265
C46    C    0.449271    0.976075    0.317753
H31    H    0.027695    0.985343    0.322296
C47    C    0.204062    0.760261    0.270591
H32    H    0.249227    0.740904    0.235733
C48    C    0.245768    0.798644    0.314300
H33    H    0.323495    0.811077    0.315079
C49    C    0.249239    0.951493    0.311051
H34    H    0.171019    0.940274    0.311067
C50    C    0.402424    0.940373    0.360769
H35    H    0.442009    0.920090    0.398766
C51    C    0.093027    0.809875    0.361102
H36    H    0.053697    0.831458    0.397572
C52    C    0.046624    0.771483    0.318997
H37    H    0.468606    0.761388    0.322526
C53    C    0.103698    0.746556    0.273674
C54    C    0.060663    0.703176    0.230785
Ni13    Ni1    0.000290    0.623021    0.169792
O20    O    0.362181    0.821645    0.437457
O21    O    0.135272    0.933099    0.434223
O22    O    0.222476    0.814252    0.482221
O23    O    0.276776    0.940814    0.480446
N10    N    0.057938    0.570527    0.108272
N11    N    0.443130    0.678480    0.108931
C55    C    0.042181    0.512470    0.017791
H38    H    0.495383    0.994324    0.481963
C56    C    0.143243    0.999812    0.020842
C57    C    0.201328    0.523581    0.067771
H39    H    0.279867    0.514405    0.071614
C58    C    0.457364    0.740343    0.021030
H40    H    0.003343    0.759397    0.486387
C59    C    0.498719    0.701963    0.065100
H41    H    0.076505    0.689660    0.066007
C60    C    0.001370    0.548311    0.062934
H42    H    0.423245    0.559513    0.063681
C61    C    0.155626    0.559445    0.111169
H43    H    0.196322    0.579789    0.148725
C62    C    0.345946    0.690742    0.111219
H44    H    0.306025    0.669296    0.147520
C63    C    0.299823    0.729050    0.068783
H45    H    0.221657    0.738837    0.071976
C64    C    0.356829    0.754016    0.023374
C65    C    0.186399    0.958134    0.477140
C66    C    0.312699    0.796764    0.479799
Ni24    Ni2    0.247186    0.876637    0.917987
O24    O    0.111556    0.678492    0.688797
O25    O    0.387533    0.566527    0.683651
O26    O    0.471084    0.684612    0.733366
O27    O    0.027529    0.558272    0.731515
N12    N    0.304746    0.929337    0.856893
N13    N    0.190190    0.821948    0.858214
C67    C    0.291263    0.987330    0.766324
H46    H    0.245458    0.505730    0.730147
C68    C    0.392348    0.999734    0.770266
C69    C    0.449271    0.976075    0.817753
H47    H    0.027695    0.985343    0.822296
C70    C    0.204062    0.760261    0.770590
H48    H    0.249227    0.740904    0.735733
C71    C    0.245768    0.798644    0.814299
H49    H    0.323495    0.811077    0.815079
C72    C    0.249239    0.951493    0.811051
H50    H    0.171019    0.940274    0.811068
C73    C    0.402424    0.940373    0.860769
H51    H    0.442009    0.920090    0.898766
C74    C    0.093027    0.809875    0.861101
H52    H    0.053697    0.831458    0.897572
C75    C    0.046624    0.771483    0.818997
H53    H    0.468606    0.761388    0.822526
C76    C    0.103698    0.746556    0.773674
C77    C    0.437047    0.541221    0.727040
C78    C    0.060663    0.703176    0.730785
Ni14    Ni1    0.000290    0.623021    0.669792
O28    O    0.362181    0.821645    0.937458
O29    O    0.135272    0.933099    0.934223
O30    O    0.222476    0.814252    0.982221
O31    O    0.276776    0.940814    0.980446
N14    N    0.057938    0.570527    0.608272
N15    N    0.443130    0.678480    0.608931
C79    C    0.042181    0.512470    0.517791
H54    H    0.495383    0.994324    0.981963
C80    C    0.143243    0.999812    0.520842
C81    C    0.201328    0.523581    0.567771
H55    H    0.279867    0.514405    0.571614
C82    C    0.457364    0.740343    0.521030
H56    H    0.003343    0.759397    0.986387
C83    C    0.498719    0.701963    0.565099
H57    H    0.076505    0.689660    0.566007
C84    C    0.001370    0.548311    0.562933
H58    H    0.423245    0.559513    0.563681
C85    C    0.155626    0.559445    0.611169
H59    H    0.196322    0.579789    0.648725
C86    C    0.345946    0.690742    0.611220
H60    H    0.306025    0.669296    0.647520
C87    C    0.299823    0.729050    0.568783
H61    H    0.221657    0.738837    0.571976
C88    C    0.356829    0.754016    0.523374
C89    C    0.186399    0.958134    0.977140
C90    C    0.312699    0.796764    0.979799
Ni25    Ni2    0.747186    0.376636    0.417988
O32    O    0.611556    0.178492    0.188797
O33    O    0.887533    0.066527    0.183651
O34    O    0.971084    0.184612    0.233366
O35    O    0.527529    0.058271    0.231515
N16    N    0.804747    0.429337    0.356893
N17    N    0.690190    0.321949    0.358214
C91    C    0.791263    0.487330    0.266324
H62    H    0.745458    0.005730    0.230147
C92    C    0.892348    0.499734    0.270265
C93    C    0.949272    0.476075    0.317753
C94    C    0.704062    0.260261    0.270591
H63    H    0.749227    0.240904    0.235733
C95    C    0.745768    0.298644    0.314300
H64    H    0.823495    0.311077    0.315079
C96    C    0.749239    0.451493    0.311051
H65    H    0.671019    0.440274    0.311067
C97    C    0.902424    0.440373    0.360769
H66    H    0.942009    0.420090    0.398766
C98    C    0.593028    0.309874    0.361102
H67    H    0.553697    0.331458    0.397572
C99    C    0.546624    0.271483    0.318997
H68    H    0.968606    0.261388    0.322526
C100    C    0.603698    0.246556    0.273674
C101    C    0.937048    0.041221    0.227041
C102    C    0.560662    0.203177    0.230785
Ni15    Ni1    0.500290    0.123021    0.169792
O36    O    0.862181    0.321645    0.437457
O37    O    0.635273    0.433098    0.434223
O38    O    0.722476    0.314252    0.482221
O39    O    0.776776    0.440814    0.480446
N18    N    0.557937    0.070527    0.108272
N19    N    0.943130    0.178480    0.108931
C103    C    0.542181    0.012470    0.017791
H69    H    0.995383    0.494324    0.481963
C104    C    0.643243    0.499812    0.020842
C105    C    0.701328    0.023581    0.067771
H70    H    0.779867    0.014405    0.071614
C106    C    0.957364    0.240342    0.021030
H71    H    0.503343    0.259397    0.486387
C107    C    0.998719    0.201962    0.065100
H72    H    0.576505    0.189660    0.066007
C108    C    0.501370    0.048312    0.062934
H73    H    0.923245    0.059513    0.063681
C109    C    0.655626    0.059444    0.111169
H74    H    0.696322    0.079789    0.148725
C110    C    0.845946    0.190742    0.111219
H75    H    0.806025    0.169296    0.147520
C111    C    0.799823    0.229050    0.068783
H76    H    0.721657    0.238837    0.071976
C112    C    0.856829    0.254016    0.023374
C113    C    0.686400    0.458134    0.477140
C114    C    0.812699    0.296764    0.479799
Ni26    Ni2    0.747186    0.376636    0.917987
O40    O    0.611556    0.178492    0.688797
O41    O    0.887533    0.066527    0.683651
O42    O    0.971084    0.184612    0.733366
O43    O    0.527529    0.058271    0.731515
N20    N    0.804747    0.429337    0.856893
N21    N    0.690190    0.321949    0.858214
C115    C    0.791263    0.487330    0.766324
H77    H    0.745458    0.005730    0.730147
C116    C    0.892348    0.499734    0.770266
C117    C    0.949272    0.476075    0.817753
H78    H    0.527695    0.485343    0.822296
C118    C    0.704062    0.260261    0.770590
H79    H    0.749227    0.240904    0.735733
C119    C    0.745768    0.298644    0.814299
H80    H    0.823495    0.311077    0.815079
C120    C    0.749239    0.451493    0.811051
H81    H    0.671019    0.440274    0.811068
C121    C    0.902424    0.440373    0.860769
H82    H    0.942009    0.420090    0.898766
C122    C    0.593028    0.309874    0.861101
H83    H    0.553697    0.331458    0.897572
C123    C    0.546624    0.271483    0.818997
H84    H    0.968606    0.261388    0.822526
C124    C    0.603698    0.246556    0.773674
C125    C    0.937048    0.041221    0.727040
C126    C    0.560662    0.203177    0.730785
Ni16    Ni1    0.500290    0.123021    0.669792
O44    O    0.862181    0.321645    0.937458
O45    O    0.635273    0.433098    0.934223
O46    O    0.722476    0.314252    0.982221
O47    O    0.776776    0.440814    0.980446
N22    N    0.557937    0.070527    0.608272
N23    N    0.943130    0.178480    0.608931
C127    C    0.542181    0.012470    0.517791
H85    H    0.995383    0.494324    0.981963
C128    C    0.643243    0.499812    0.520842
C129    C    0.701328    0.023581    0.567771
H86    H    0.779867    0.014405    0.571614
C130    C    0.957364    0.240342    0.521030
H87    H    0.503343    0.259397    0.986387
C131    C    0.998719    0.201962    0.565099
H88    H    0.576505    0.189660    0.566007
C132    C    0.501370    0.048312    0.562933
H89    H    0.923245    0.059513    0.563681
C133    C    0.655626    0.059444    0.611169
H90    H    0.696322    0.079789    0.648725
C134    C    0.845946    0.190742    0.611220
H91    H    0.806025    0.169296    0.647520
C135    C    0.799823    0.229050    0.568783
H92    H    0.721657    0.238837    0.571976
C136    C    0.856829    0.254016    0.523374
C137    C    0.686400    0.458134    0.977140
C138    C    0.812699    0.296764    0.979799
Ni27    Ni2    0.747186    0.876637    0.417988
O48    O    0.611556    0.678492    0.188797
O49    O    0.887533    0.566527    0.183651
O50    O    0.971084    0.684612    0.233366
N24    N    0.804747    0.929337    0.356893
N25    N    0.690190    0.821948    0.358214
C139    C    0.791263    0.987330    0.266324
H93    H    0.745458    0.505730    0.230147
C140    C    0.892348    0.999734    0.270265
C141    C    0.949272    0.976075    0.317753
H94    H    0.527695    0.985343    0.322296
C142    C    0.704062    0.760261    0.270591
H95    H    0.749227    0.740904    0.235733
C143    C    0.745768    0.798644    0.314300
H96    H    0.823495    0.811077    0.315079
C144    C    0.749239    0.951493    0.311051
H97    H    0.671019    0.940274    0.311067
C145    C    0.902424    0.940373    0.360769
H98    H    0.942009    0.920090    0.398766
C146    C    0.593028    0.809875    0.361102
H99    H    0.553697    0.831458    0.397572
C147    C    0.546624    0.771483    0.318997
H100    H    0.968606    0.761388    0.322526
C148    C    0.603698    0.746556    0.273674
C149    C    0.937048    0.541221    0.227041
C150    C    0.560662    0.703176    0.230785
Ni17    Ni1    0.500290    0.623021    0.169792
O51    O    0.862181    0.821645    0.437457
O52    O    0.635273    0.933099    0.434223
O53    O    0.722476    0.814252    0.482221
O54    O    0.776776    0.940814    0.480446
N26    N    0.557937    0.570527    0.108272
N27    N    0.943130    0.678480    0.108931
C151    C    0.542181    0.512470    0.017791
H101    H    0.995383    0.994324    0.481963
C152    C    0.643243    0.999812    0.020842
C153    C    0.701328    0.523581    0.067771
H102    H    0.779867    0.514405    0.071614
C154    C    0.957364    0.740343    0.021030
H103    H    0.503343    0.759397    0.486387
C155    C    0.998719    0.701963    0.065100
H104    H    0.576505    0.689660    0.066007
C156    C    0.501370    0.548311    0.062934
H105    H    0.923245    0.559513    0.063681
C157    C    0.655626    0.559445    0.111169
H106    H    0.696322    0.579789    0.148725
C158    C    0.845946    0.690742    0.111219
H107    H    0.806025    0.669296    0.147520
C159    C    0.799823    0.729050    0.068783
H108    H    0.721657    0.738837    0.071976
C160    C    0.856829    0.754016    0.023374
C161    C    0.686400    0.958134    0.477140
C162    C    0.812699    0.796764    0.479799
Ni28    Ni2    0.747186    0.876637    0.917987
O55    O    0.611556    0.678492    0.688797
O56    O    0.887533    0.566527    0.683651
O57    O    0.971084    0.684612    0.733366
O58    O    0.527529    0.558272    0.731515
N28    N    0.804747    0.929337    0.856893
N29    N    0.690190    0.821948    0.858214
C163    C    0.791263    0.987330    0.766324
H109    H    0.745458    0.505730    0.730147
C164    C    0.892348    0.999734    0.770266
C165    C    0.949272    0.976075    0.817753
H110    H    0.527695    0.985343    0.822296
C166    C    0.704062    0.760261    0.770590
H111    H    0.749227    0.740904    0.735733
C167    C    0.745768    0.798644    0.814299
H112    H    0.823495    0.811077    0.815079
C168    C    0.749239    0.951493    0.811051
H113    H    0.671019    0.940274    0.811068
C169    C    0.902424    0.940373    0.860769
H114    H    0.942009    0.920090    0.898766
C170    C    0.593028    0.809875    0.861101
H115    H    0.553697    0.831458    0.897572
C171    C    0.546624    0.771483    0.818997
H116    H    0.968606    0.761388    0.822526
C172    C    0.603698    0.746556    0.773674
C173    C    0.937048    0.541221    0.727040
C174    C    0.560662    0.703176    0.730785
Ni18    Ni1    0.500290    0.623021    0.669792
O59    O    0.862181    0.821645    0.937458
O60    O    0.635273    0.933099    0.934223
O61    O    0.722476    0.814252    0.982221
O62    O    0.776776    0.940814    0.980446
N30    N    0.557937    0.570527    0.608272
N31    N    0.943130    0.678480    0.608931
C175    C    0.542181    0.512470    0.517791
H117    H    0.995383    0.994324    0.981963
C176    C    0.643243    0.999812    0.520842
C177    C    0.701328    0.523581    0.567771
H118    H    0.779867    0.514405    0.571614
C178    C    0.957364    0.740343    0.521030
H119    H    0.503343    0.759397    0.986387
C179    C    0.998719    0.701963    0.565099
H120    H    0.576505    0.689660    0.566007
C180    C    0.501370    0.548311    0.562933
H121    H    0.923245    0.559513    0.563681
C181    C    0.655626    0.559445    0.611169
H122    H    0.696322    0.579789    0.648725
C182    C    0.845946    0.690742    0.611220
H123    H    0.806025    0.669296    0.647520
C183    C    0.799823    0.729050    0.568783
H124    H    0.721657    0.738837    0.571976
C184    C    0.856829    0.754016    0.523374
C185    C    0.686400    0.958134    0.977140
C186    C    0.812699    0.796764    0.979799
C187    C    0.146132    0.431833    0.313239
C188    C    0.291315    0.487135    0.266003
C189    C    0.437038    0.541442    0.227087
C190    C    0.249754    0.450894    0.310666
C191    C    0.392057    0.499806    0.270130
C192    C    0.448941    0.476027    0.317781
C193    C    0.402363    0.440503    0.361006
N32    N    0.304986    0.429047    0.356863
H125    H    0.244988    0.505100    0.229761
O63    O    0.387068    0.568639    0.185347
O64    O    0.528974    0.556484    0.230159
H126    H    0.527226    0.485434    0.322158
H127    H    0.441855    0.421015    0.399509
H128    H    0.105326    0.450173    0.275841
H129    H    0.115635    0.448824    0.353809
H130    H    0.142263    0.382207    0.312583

loop_
_geom_bond_atom_site_label_1
_geom_bond_atom_site_label_2
_geom_bond_distance
O1    C7    0.07044
O2    C6    0.07053
O3    C102    0.09152
O4    C101    0.09218
N1    C2    0.07457
N1    C3    0.09795
H1    C44    0.06120
H2    C93    0.07910
C1    H3    0.06025
C1    C2    0.07158
C1    C5    0.10134
C2    H4    0.07872
C3    H5    0.05782
C3    C4    0.07348
C4    C5    0.07703
C4    H68    0.07875
H6    C99    0.07875
C5    C7    0.07465
C6    C45    0.07475
C6    O35    0.09218
C7    O34    0.09152
O5    C19    0.06972
O6    C18    0.07129
O7    C19    0.09193
O8    C18    0.09208
N2    C13    0.07582
N2    C14    0.09836
N3    C12    0.07458
N3    C15    0.09798
C8    C13    0.07063
C8    C56    0.10190
C8    H117    0.06167
H7    C175    0.06167
C9    C42    0.07423
C9    C55    0.10190
C9    C57    0.07836
C10    H8    0.07917
C10    C14    0.07251
C10    C56    0.07836
C11    C12    0.07159
C11    C17    0.10149
C11    H87    0.06064
H9    C130    0.06064
C12    H72    0.07876
H10    C107    0.07876
C13    H73    0.07893
H11    C108    0.07893
C14    H12    0.05900
C15    H13    0.05806
C15    C16    0.07346
C16    H14    0.07884
C16    C17    0.07704
C17    C43    0.07532
C18    C33    0.07423
C19    C41    0.07532
O9    C31    0.07044
O10    C30    0.07053
O11    C126    0.09152
O12    C125    0.09218
N4    C25    0.07532
N4    C26    0.09838
N5    C24    0.07457
N5    C27    0.09795
C20    C21    0.10192
C20    C25    0.07107
C20    H46    0.06120
H15    C67    0.06120
C21    C22    0.07781
C21    C77    0.07475
C22    C26    0.07294
C22    H78    0.07910
H16    C117    0.07910
C23    H17    0.06025
C23    C24    0.07158
C23    C29    0.10134
C24    H18    0.07872
C25    H19    0.07902
C26    H20    0.05850
C27    H21    0.05782
C27    C28    0.07348
C28    C29    0.07703
C28    H84    0.07875
H22    C123    0.07875
C29    C31    0.07465
C30    C68    0.07475
C30    O43    0.09218
C31    O42    0.09152
O13    C43    0.06972
O14    C42    0.07129
O15    C43    0.09193
O16    C42    0.09208
N6    C37    0.07582
N6    C38    0.09836
N7    C36    0.07458
N7    C39    0.09798
C32    C37    0.07063
C32    C80    0.10190
C32    H101    0.06167
H23    C151    0.06167
C33    C79    0.10190
C33    C81    0.07836
C34    H24    0.07917
C34    C38    0.07251
C34    C80    0.07836
C35    C36    0.07159
C35    C41    0.10149
C35    H71    0.06064
H25    C106    0.06064
C36    H88    0.07876
H26    C131    0.07876
C37    H89    0.07893
H27    C132    0.07893
C38    H28    0.05900
C39    H29    0.05806
C39    C40    0.07346
C40    H30    0.07884
C40    C41    0.07704
O17    C54    0.07044
O18    C150    0.09152
O19    C149    0.09218
N8    C49    0.07532
N8    C50    0.09838
N9    C48    0.07457
N9    C51    0.09795
C44    C45    0.10192
C44    C49    0.07107
C45    C46    0.07781
C46    C50    0.07294
C46    H94    0.07910
H31    C141    0.07910
C47    H32    0.06025
C47    C48    0.07158
C47    C53    0.10134
C48    H33    0.07872
C49    H34    0.07902
C50    H35    0.05850
C51    H36    0.05782
C51    C52    0.07348
C52    C53    0.07703
C52    H100    0.07875
H37    C147    0.07875
C53    C54    0.07465
C54    O50    0.09152
O20    C66    0.06972
O21    C65    0.07129
O22    C66    0.09193
O23    C65    0.09208
N10    C60    0.07582
N10    C61    0.09836
N11    C59    0.07458
N11    C62    0.09798
C55    C60    0.07063
C55    H85    0.06167
H38    C127    0.06167
C56    C89    0.07423
C57    H39    0.07917
C57    C61    0.07251
C58    C59    0.07159
C58    C64    0.10149
C58    H119    0.06064
H40    C178    0.06064
C59    H104    0.07876
H41    C155    0.07876
C60    H105    0.07893
H42    C156    0.07893
C61    H43    0.05900
C62    H44    0.05806
C62    C63    0.07346
C63    H45    0.07884
C63    C64    0.07704
C64    C90    0.07532
C65    C80    0.07423
C66    C88    0.07532
O24    C78    0.07044
O25    C77    0.07053
O26    C174    0.09152
O27    C173    0.09218
N12    C72    0.07532
N12    C73    0.09838
N13    C71    0.07457
N13    C74    0.09795
C67    C68    0.10192
C67    C72    0.07107
C68    C69    0.07781
C69    C73    0.07294
C69    H110    0.07910
H47    C165    0.07910
C70    H48    0.06025
C70    C71    0.07158
C70    C76    0.10134
C71    H49    0.07872
C72    H50    0.07902
C73    H51    0.05850
C74    H52    0.05782
C74    C75    0.07348
C75    C76    0.07703
C75    H116    0.07875
H53    C171    0.07875
C76    C78    0.07465
C77    O58    0.09218
C78    O57    0.09152
O28    C90    0.06972
O29    C89    0.07129
O30    C90    0.09193
O31    C89    0.09208
N14    C84    0.07582
N14    C85    0.09836
N15    C83    0.07458
N15    C86    0.09798
C79    C84    0.07063
C79    H69    0.06167
H54    C103    0.06167
C81    H55    0.07917
C81    C85    0.07251
C82    C83    0.07159
C82    C88    0.10149
C82    H103    0.06064
H56    C154    0.06064
C83    H120    0.07876
H57    C179    0.07876
C84    H121    0.07893
H58    C180    0.07893
C85    H59    0.05900
C86    H60    0.05806
C86    C87    0.07346
C87    H61    0.07884
C87    C88    0.07704
O32    C102    0.07044
O33    C101    0.07053
N16    C96    0.07532
N16    C97    0.09838
N17    C95    0.07457
N17    C98    0.09795
C91    C92    0.10192
C91    C96    0.07107
C91    H93    0.06120
H62    C139    0.06120
C92    C93    0.07781
C92    C149    0.07475
C93    C97    0.07294
C94    H63    0.06025
C94    C95    0.07158
C94    C100    0.10134
C95    H64    0.07872
C96    H65    0.07902
C97    H66    0.05850
C98    H67    0.05782
C98    C99    0.07348
C99    C100    0.07703
C100    C102    0.07465
C101    C140    0.07475
O36    C114    0.06972
O37    C113    0.07129
O38    C114    0.09193
O39    C113    0.09208
N18    C108    0.07582
N18    C109    0.09836
N19    C107    0.07458
N19    C110    0.09798
C103    C108    0.07063
C103    C152    0.10190
C104    C137    0.07423
C104    C151    0.10190
C104    C153    0.07836
C105    H70    0.07917
C105    C109    0.07251
C105    C152    0.07836
C106    C107    0.07159
C106    C112    0.10149
C109    H74    0.05900
C110    H75    0.05806
C110    C111    0.07346
C111    H76    0.07884
C111    C112    0.07704
C112    C138    0.07532
C113    C128    0.07423
C114    C136    0.07532
O40    C126    0.07044
O41    C125    0.07053
N20    C120    0.07532
N20    C121    0.09838
N21    C119    0.07457
N21    C122    0.09795
C115    C116    0.10192
C115    C120    0.07107
C115    H109    0.06120
H77    C163    0.06120
C116    C117    0.07781
C116    C173    0.07475
C117    C121    0.07294
C118    H79    0.06025
C118    C119    0.07158
C118    C124    0.10134
C119    H80    0.07872
C120    H81    0.07902
C121    H82    0.05850
C122    H83    0.05782
C122    C123    0.07348
C123    C124    0.07703
C124    C126    0.07465
C125    C164    0.07475
O44    C138    0.06972
O45    C137    0.07129
O46    C138    0.09193
O47    C137    0.09208
N22    C132    0.07582
N22    C133    0.09836
N23    C131    0.07458
N23    C134    0.09798
C127    C132    0.07063
C127    C176    0.10190
C128    C175    0.10190
C128    C177    0.07836
C129    H86    0.07917
C129    C133    0.07251
C129    C176    0.07836
C130    C131    0.07159
C130    C136    0.10149
C133    H90    0.05900
C134    H91    0.05806
C134    C135    0.07346
C135    H92    0.07884
C135    C136    0.07704
O48    C150    0.07044
O49    C149    0.07053
N24    C144    0.07532
N24    C145    0.09838
N25    C143    0.07457
N25    C146    0.09795
C139    C140    0.10192
C139    C144    0.07107
C140    C141    0.07781
C141    C145    0.07294
C142    H95    0.06025
C142    C143    0.07158
C142    C148    0.10134
C143    H96    0.07872
C144    H97    0.07902
C145    H98    0.05850
C146    H99    0.05782
C146    C147    0.07348
C147    C148    0.07703
C148    C150    0.07465
O51    C162    0.06972
O52    C161    0.07129
O53    C162    0.09193
O54    C161    0.09208
N26    C156    0.07582
N26    C157    0.09836
N27    C155    0.07458
N27    C158    0.09798
C151    C156    0.07063
C152    C185    0.07423
C153    H102    0.07917
C153    C157    0.07251
C154    C155    0.07159
C154    C160    0.10149
C157    H106    0.05900
C158    H107    0.05806
C158    C159    0.07346
C159    H108    0.07884
C159    C160    0.07704
C160    C186    0.07532
C161    C176    0.07423
C162    C184    0.07532
O55    C174    0.07044
O56    C173    0.07053
N28    C168    0.07532
N28    C169    0.09838
N29    C167    0.07457
N29    C170    0.09795
C163    C164    0.10192
C163    C168    0.07107
C164    C165    0.07781
C165    C169    0.07294
C166    H111    0.06025
C166    C167    0.07158
C166    C172    0.10134
C167    H112    0.07872
C168    H113    0.07902
C169    H114    0.05850
C170    H115    0.05782
C170    C171    0.07348
C171    C172    0.07703
C172    C174    0.07465
O59    C186    0.06972
O60    C185    0.07129
O61    C186    0.09193
O62    C185    0.09208
N30    C180    0.07582
N30    C181    0.09836
N31    C179    0.07458
N31    C182    0.09798
C175    C180    0.07063
C177    H118    0.07917
C177    C181    0.07251
C178    C179    0.07159
C178    C184    0.10149
C181    H122    0.05900
C182    H123    0.05806
C182    C183    0.07346
C183    H124    0.07884
C183    C184    0.07704
