data_new_xtal_PM
_symmetry_space_group_name_H-M    'P1'
_cell_length_a    7.134000
_cell_length_b    7.134000
_cell_length_c    3.567000
_cell_angle_alpha    90.000000
_cell_angle_beta    90.000000
_cell_angle_gamma    90.000000
_symmetry_Int_Tables_number 1

loop_
_symmetry_equiv_pos_as_xyz
'x,y,z'

loop_
_atom_site_label
_atom_site_type_symbol
_atom_site_fract_x
_atom_site_fract_y
_atom_site_fract_z
C1    C    0.125000    0.125000    0.250000
C2    C    0.125000    0.375000    0.750000
C3    C    0.000000    0.250000    0.500000
C4    C    0.375000    0.125000    0.750000
C5    C    0.250000    0.000000    0.500000
C6    C    0.375000    0.375000    0.250000
C7    C    0.250000    0.250000    0.000000
C8    C    0.125000    0.625000    0.250000
C9    C    0.000000    0.500000    0.000000
C10    C    0.125000    0.875000    0.750000
C11    C    0.375000    0.625000    0.750000
C12    C    0.250000    0.500000    0.500000
C13    C    0.375000    0.875000    0.250000
C14    C    0.250000    0.750000    0.000000
C15    C    0.625000    0.125000    0.250000
C16    C    0.500000    0.000000    0.000000
C17    C    0.625000    0.375000    0.750000
C18    C    0.500000    0.250000    0.500000
C19    C    0.875000    0.125000    0.750000
C20    C    0.875000    0.375000    0.250000
C21    C    0.750000    0.250000    0.000000
C22    C    0.625000    0.625000    0.250000
C23    C    0.500000    0.500000    0.000000
C24    C    0.625000    0.875000    0.750000
C25    C    0.500000    0.750000    0.500000
C26    C    0.875000    0.625000    0.750000
C27    C    0.750000    0.500000    0.500000
N1    N    0.874993    0.875007    0.250014
C28    C    0.000000    0.000000    1.000000
C29    C    1.000000    0.750000    0.500000
C30    C    0.750000    1.000000    0.500000

loop_
_geom_bond_atom_site_label_1
_geom_bond_atom_site_label_2
_geom_bond_distance
C1    C3    0.30619
C1    C5    0.30619
C1    C7    0.30619
C1    C28    0.30619
C2    C3    0.30619
C2    C7    0.30619
C2    C9    0.30619
C2    C12    0.30619
C3    C19    0.30619
C3    C20    0.30619
C4    C5    0.30619
C4    C7    0.30619
C4    C16    0.30619
C4    C18    0.30619
C5    C10    0.30619
C5    C13    0.30619
C6    C7    0.30619
C6    C12    0.30619
C6    C18    0.30619
C6    C23    0.30619
C8    C9    0.30619
C8    C12    0.30619
C8    C14    0.30619
C8    C29    0.30619
C9    C20    0.30619
C9    C26    0.30619
C10    C14    0.30619
C10    C28    0.30619
C10    C29    0.30619
C11    C12    0.30619
C11    C14    0.30619
C11    C23    0.30619
C11    C25    0.30619
C13    C14    0.30619
C13    C16    0.30619
C13    C25    0.30619
C15    C16    0.30619
C15    C18    0.30619
C15    C21    0.30619
C15    C30    0.30619
C16    C24    0.30619
C17    C18    0.30619
C17    C21    0.30619
C17    C23    0.30619
C17    C27    0.30619
C19    C21    0.30619
C19    C28    0.30619
C19    C30    0.30619
C20    C21    0.30619
C20    C27    0.30619
C22    C23    0.30619
C22    C25    0.30619
C22    C27    0.30619
C24    C25    0.30619
C24    C30    0.30619
C26    C27    0.30619
C26    C29    0.30619
N1    C28    0.30620
N1    C29    0.30618
N1    C30    0.30617
