data_Ti-MIL-125_manual_PM
_symmetry_space_group_name_H-M	'P1'
_cell_length_a	18.654300
_cell_length_b	18.654300
_cell_length_c	18.144400
_cell_angle_alpha	90.000000
_cell_angle_beta	90.000000
_cell_angle_gamma	90.000000
_symmetry_Int_Tables_number 1

loop_
_symmetry_equiv_pos_as_xyz
'x,y,z'

loop_
_atom_site_label
_atom_site_type_symbol
_atom_site_fract_x
_atom_site_fract_y
_atom_site_fract_z
Ti1	Ti	0.208300	0.074000	0.500000
O1	O	0.311100	0.058000	0.500000
O2	O	0.181900	-0.000000	0.426500
O3	O	0.225900	0.144200	0.426800
O4	O	0.107400	0.107400	0.500000
C1	C	0.350700	-0.000000	0.500000
C2	C	0.426500	-0.000000	0.500000
C3	C	0.463200	0.070500	0.500000
C4	C	0.194000	0.194000	0.402300
C5	C	0.222500	0.222500	0.320900
C6	C	0.201500	0.287600	0.289800
O5	O	0.855800	0.225900	0.426800
O6	O	0.225900	0.855800	0.573200
O7	O	0.774100	0.855800	0.426800
O8	O	0.144200	0.225900	0.573200
O9	O	0.144200	0.774100	0.426800
O10	O	0.774100	0.144200	0.573200
O11	O	0.855800	0.774100	0.573200
O12	O	0.725900	0.644200	0.926800
O13	O	0.355800	0.725900	0.926800
O14	O	0.725900	0.355800	0.073200
O15	O	0.274100	0.355800	0.926800
O16	O	0.644200	0.725900	0.073200
O17	O	0.644200	0.274100	0.926800
O18	O	0.274100	0.644200	0.073200
O19	O	0.355800	0.274100	0.073200
O20	O	0.774100	0.855800	0.573200
O21	O	0.144200	0.774100	0.573200
O22	O	0.774100	0.144200	0.426800
O23	O	0.225900	0.144200	0.573200
O24	O	0.855800	0.774100	0.426800
O25	O	0.855800	0.225900	0.573200
O26	O	0.225900	0.855800	0.426800
O27	O	0.144200	0.225900	0.426800
O28	O	0.274100	0.355800	0.073200
O29	O	0.644200	0.274100	0.073200
O30	O	0.274100	0.644200	0.926800
O31	O	0.725900	0.644200	0.073200
O32	O	0.355800	0.274100	0.926800
O33	O	0.355800	0.725900	0.073200
O34	O	0.725900	0.355800	0.926800
O35	O	0.644200	0.725900	0.926800
O36	O	0.942000	0.311100	0.500000
O37	O	0.311100	0.942000	0.500000
O38	O	0.688900	0.942000	0.500000
O39	O	0.058000	0.311100	0.500000
O40	O	0.058000	0.688900	0.500000
O41	O	0.688900	0.058000	0.500000
O42	O	0.942000	0.688900	0.500000
O43	O	0.811100	0.558000	0.000000
O44	O	0.442000	0.811100	0.000000
O45	O	0.811100	0.442000	0.000000
O46	O	0.188900	0.442000	0.000000
O47	O	0.558000	0.811100	0.000000
O48	O	0.558000	0.188900	0.000000
O49	O	0.188900	0.558000	0.000000
O50	O	0.442000	0.188900	0.000000
C7	C	0.777500	0.222500	0.320900
C8	C	0.222500	0.777500	0.679100
C9	C	0.777500	0.777500	0.320900
C10	C	0.222500	0.222500	0.679100
C11	C	0.222500	0.777500	0.320900
C12	C	0.777500	0.222500	0.679100
C13	C	0.777500	0.777500	0.679100
C14	C	0.722500	0.722500	0.820900
C15	C	0.277500	0.722500	0.820900
C16	C	0.722500	0.277500	0.179100
C17	C	0.277500	0.277500	0.820900
C18	C	0.722500	0.722500	0.179100
C19	C	0.722500	0.277500	0.820900
C20	C	0.277500	0.722500	0.179100
C21	C	0.277500	0.277500	0.179100
C22	C	0.806000	0.194000	0.402300
C23	C	0.194000	0.806000	0.597700
C24	C	0.806000	0.806000	0.402300
C25	C	0.194000	0.194000	0.597700
C26	C	0.194000	0.806000	0.402300
C27	C	0.806000	0.194000	0.597700
C28	C	0.806000	0.806000	0.597700
C29	C	0.694000	0.694000	0.902300
C30	C	0.306000	0.694000	0.902300
C31	C	0.694000	0.306000	0.097700
C32	C	0.306000	0.306000	0.902300
C33	C	0.694000	0.694000	0.097700
C34	C	0.694000	0.306000	0.902300
C35	C	0.306000	0.694000	0.097700
C36	C	0.306000	0.306000	0.097700
O51	O	-0.000000	0.181900	0.426500
O52	O	0.181900	-0.000000	0.573500
O53	O	0.818100	-0.000000	0.426500
O54	O	-0.000000	0.181900	0.573500
O55	O	-0.000000	0.818100	0.426500
O56	O	0.818100	-0.000000	0.573500
O57	O	-0.000000	0.818100	0.573500
O58	O	0.681900	0.500000	0.926500
O59	O	0.500000	0.681900	0.926500
O60	O	0.681900	0.500000	0.073500
O61	O	0.318100	0.500000	0.926500
O62	O	0.500000	0.681900	0.073500
O63	O	0.500000	0.318100	0.926500
O64	O	0.318100	0.500000	0.073500
O65	O	0.500000	0.318100	0.073500
O66	O	0.892600	0.107400	0.500000
O67	O	0.107400	0.892600	0.500000
O68	O	0.892600	0.892600	0.500000
O69	O	0.607400	0.607400	0.000000
O70	O	0.392600	0.607400	0.000000
O71	O	0.607400	0.392600	0.000000
O72	O	0.392600	0.392600	0.000000
C37	C	-0.000000	0.350700	0.500000
C38	C	0.649300	-0.000000	0.500000
C39	C	-0.000000	0.649300	0.500000
C40	C	0.850700	0.500000	0.000000
C41	C	0.500000	0.850700	0.000000
C42	C	0.149300	0.500000	0.000000
C43	C	0.500000	0.149300	0.000000
Ti2	Ti	0.926000	0.208300	0.500000
Ti3	Ti	0.208300	0.926000	0.500000
Ti4	Ti	0.791700	0.926000	0.500000
Ti5	Ti	0.074000	0.208300	0.500000
Ti6	Ti	0.074000	0.791700	0.500000
Ti7	Ti	0.791700	0.074000	0.500000
Ti8	Ti	0.926000	0.791700	0.500000
Ti9	Ti	0.708300	0.574000	0.000000
Ti10	Ti	0.426000	0.708300	0.000000
Ti11	Ti	0.708300	0.426000	0.000000
Ti12	Ti	0.291700	0.426000	0.000000
Ti13	Ti	0.574000	0.708300	0.000000
Ti14	Ti	0.574000	0.291700	0.000000
Ti15	Ti	0.291700	0.574000	0.000000
Ti16	Ti	0.426000	0.291700	0.000000
C44	C	-0.000000	0.426500	0.500000
C45	C	0.573500	-0.000000	0.500000
C46	C	-0.000000	0.573500	0.500000
C47	C	0.926500	0.500000	0.000000
C48	C	0.500000	0.926500	0.000000
C49	C	0.073500	0.500000	0.000000
C50	C	0.500000	0.073500	0.000000
C51	C	0.930143	0.463217	0.500918
C52	C	0.463200	0.929500	0.500000
C53	C	0.536800	0.929500	0.500000
C54	C	0.070500	0.463200	0.500000
C55	C	0.070500	0.536800	0.500000
C56	C	0.536800	0.070500	0.500000
C57	C	0.928857	0.536783	0.499082
C58	C	0.963200	0.570500	0.000000
C59	C	0.429500	0.963200	0.000000
C60	C	0.963200	0.429500	0.000000
C61	C	0.036800	0.429500	0.000000
C62	C	0.570500	0.963200	0.000000
C63	C	0.570500	0.036800	0.000000
C64	C	0.036800	0.570500	0.000000
C65	C	0.429500	0.036800	0.000000
C66	C	0.712400	0.201500	0.289800
C67	C	0.201500	0.712400	0.710200
C68	C	0.798500	0.712400	0.289800
C69	C	0.287600	0.201500	0.710200
C70	C	0.287600	0.798500	0.289800
C71	C	0.798500	0.287600	0.710200
C72	C	0.712400	0.798500	0.710200
C73	C	0.701500	0.787600	0.789800
C74	C	0.212400	0.701500	0.789800
C75	C	0.701500	0.212400	0.210200
C76	C	0.298500	0.212400	0.789800
C77	C	0.787600	0.701500	0.210200
C78	C	0.787600	0.298500	0.789800
C79	C	0.298500	0.787600	0.210200
C80	C	0.212400	0.298500	0.210200
C81	C	0.798500	0.712400	0.710200
C82	C	0.287600	0.798500	0.710200
C83	C	0.798500	0.287600	0.289800
C84	C	0.201500	0.287600	0.710200
C85	C	0.712400	0.798500	0.289800
C86	C	0.712400	0.201500	0.710200
C87	C	0.201500	0.712400	0.289800
C88	C	0.287600	0.201500	0.289800
C89	C	0.298500	0.212400	0.210200
C90	C	0.787600	0.298500	0.210200
C91	C	0.298500	0.787600	0.789800
C92	C	0.701500	0.787600	0.210200
C93	C	0.212400	0.298500	0.789800
C94	C	0.212400	0.701500	0.210200
C95	C	0.701500	0.212400	0.789800
C96	C	0.787600	0.701500	0.789800
H1	H	0.434500	0.117796	0.500000
H2	H	0.565500	0.117796	0.500000
H3	H	0.882735	0.434758	0.502758
H4	H	0.880483	0.563623	0.499545
H5	H	0.564461	0.882796	0.489015
H6	H	0.435539	0.882796	0.489015
H7	H	0.117796	0.434500	0.500000
H8	H	0.117796	0.565500	0.500000
H9	H	0.821180	0.672746	0.678117
H10	H	0.827254	0.678820	0.821883
H11	H	0.678820	0.827254	0.821883
H12	H	0.672746	0.821180	0.678117
H13	H	0.827254	0.321180	0.821883
H14	H	0.821180	0.327254	0.678117
H15	H	0.672746	0.178820	0.678117
H16	H	0.678820	0.172746	0.821883
H17	H	0.321180	0.172746	0.821883
H18	H	0.327254	0.178820	0.678117
H19	H	0.178820	0.327254	0.678117
H20	H	0.172746	0.321180	0.821883
H21	H	0.327254	0.821180	0.678117
H22	H	0.321180	0.827254	0.821883
H23	H	0.172746	0.678820	0.821883
H24	H	0.178820	0.672746	0.678117
H25	H	0.672746	0.821180	0.321883
H26	H	0.678820	0.827254	0.178117
H27	H	0.827254	0.678820	0.178117
H28	H	0.821180	0.672746	0.321883
H29	H	0.821180	0.327254	0.321883
H30	H	0.827254	0.321180	0.178117
H31	H	0.678820	0.172746	0.178117
H32	H	0.672746	0.178820	0.321883
H33	H	0.327254	0.178820	0.321883
H34	H	0.321180	0.172746	0.178117
H35	H	0.172746	0.321180	0.178117
H36	H	0.178820	0.327254	0.321883
H37	H	0.321180	0.827254	0.178117
H38	H	0.327254	0.821180	0.321883
H39	H	0.178820	0.672746	0.321883
H40	H	0.172746	0.678820	0.178117
H41	H	0.617159	0.933475	0.000000
H42	H	0.382841	0.933475	0.000000
H43	H	0.933475	0.617159	0.000000
H44	H	0.933475	0.382841	0.000000
H45	H	0.382841	0.066525	0.000000
H46	H	0.617159	0.066525	0.000000
H47	H	0.066525	0.617159	0.000000
H48	H	0.066525	0.382841	0.000000
