data_crystal

_cell_length_a 20.74650
_cell_length_b 20.74650
_cell_length_c 20.74650
_cell_angle_alpha 90.00000
_cell_angle_beta  90.00000
_cell_angle_gamma 90.00000

_symmetry_space_group_name_	'P 1'
_symmetry_space_group_name_H-M	'P 1'

loop_
_symmetry_equiv_pos_as_xyz
  x,y,z

loop_
_atom_site_label
_atom_site_type_symbol
_atom_site_fract_x
_atom_site_fract_y
_atom_site_fract_z
_atom_site_charge
O 	O 	-0.16732 0.08866 0.00176 -0.62700
O 	O 	0.16732 0.08866 -0.00176 -0.62700
O 	O 	-0.00176 0.16732 0.08866 -0.62700
O 	O 	0.00176 0.16732 -0.08866 -0.62700
O 	O 	0.00176 0.08866 -0.16732 -0.62700
O 	O 	-0.00176 0.08866 0.16732 -0.62700
O 	O 	0.08866 0.16732 -0.00176 -0.62700
O 	O 	-0.08866 0.16732 0.00176 -0.62700
Zr	Zr	-0.00000 0.11466 -0.00000 3.23300
O 	O 	0.05863 0.05863 -0.05863 -1.26300
O 	O 	-0.05863 0.05863 0.05863 -1.26300
C 	C 	-0.14887 0.14887 0.00249 0.45200
C 	C 	0.14887 0.14887 -0.00250 0.45100
C 	C 	-0.00250 0.14887 0.14887 0.45100
C 	C 	0.00250 0.14887 -0.14887 0.45200
H 	H 	0.08570 0.08570 0.08570 0.31200
O 	O 	0.05820 0.05820 0.05820 -1.49300
H 	H 	-0.08570 0.08570 -0.08570 0.31300
O 	O 	-0.05820 0.05820 -0.05820 -1.49300
O 	O 	0.16732 -0.08866 0.00176 -0.62700
O 	O 	-0.16732 -0.08866 -0.00176 -0.62700
O 	O 	0.08866 -0.00176 0.16732 -0.62700
O 	O 	0.08866 0.00176 -0.16732 -0.62700
O 	O 	-0.08866 -0.00176 -0.16732 -0.62700
O 	O 	-0.08866 0.00176 0.16732 -0.62700
O 	O 	0.00176 -0.16732 0.08866 -0.62700
O 	O 	-0.00176 -0.16732 -0.08866 -0.62700
O 	O 	0.00176 -0.08866 0.16732 -0.62700
O 	O 	-0.00176 -0.08866 -0.16732 -0.62700
O 	O 	0.16732 -0.00176 0.08866 -0.62700
O 	O 	-0.16732 0.00176 0.08866 -0.62700
O 	O 	-0.16732 -0.00176 -0.08866 -0.62700
O 	O 	0.16732 0.00176 -0.08866 -0.62700
O 	O 	0.08866 -0.16732 0.00176 -0.62700
O 	O 	-0.08866 -0.16732 -0.00176 -0.62700
Zr	Zr	0.11466 0.00000 -0.00000 3.23300
Zr	Zr	-0.11466 0.00000 -0.00000 3.23300
Zr	Zr	-0.00000 -0.00000 0.11466 3.23300
Zr	Zr	0.00000 0.00000 -0.11466 3.23300
Zr	Zr	0.00000 -0.11466 -0.00000 3.23300
O 	O 	-0.05863 -0.05863 -0.05863 -1.26300
O 	O 	0.05863 -0.05863 0.05863 -1.26300
C 	C 	0.14887 -0.14887 0.00250 0.45200
C 	C 	-0.14887 -0.14887 -0.00250 0.45400
C 	C 	0.14887 -0.00249 0.14887 0.45000
C 	C 	0.14887 0.00249 -0.14887 0.45100
C 	C 	-0.14887 -0.00250 -0.14887 0.45300
C 	C 	-0.14887 0.00250 0.14887 0.45100
C 	C 	0.00249 -0.14887 0.14887 0.45100
C 	C 	-0.00249 -0.14887 -0.14887 0.45300
H 	H 	-0.08570 -0.08570 0.08570 0.31200
O 	O 	-0.05820 -0.05820 0.05820 -1.49400
H 	H 	0.08570 -0.08570 -0.08570 0.31200
O 	O 	0.05820 -0.05820 -0.05820 -1.49400
O 	O 	0.33268 0.58866 0.00176 -0.62800
O 	O 	0.66732 0.58866 -0.00176 -0.62800
O 	O 	0.49824 0.66732 0.08866 -0.62800
O 	O 	0.50176 0.66732 -0.08866 -0.62800
O 	O 	0.50176 0.58866 -0.16732 -0.62800
O 	O 	0.49824 0.58866 0.16732 -0.62800
O 	O 	0.58866 0.66732 -0.00176 -0.62800
O 	O 	0.41134 0.66732 0.00176 -0.62800
Zr	Zr	0.50000 0.61466 -0.00000 3.23200
O 	O 	0.55863 0.55863 -0.05863 -1.26400
O 	O 	0.44137 0.55863 0.05863 -1.26400
C 	C 	0.35113 0.64887 0.00249 0.45000
C 	C 	0.64887 0.64887 -0.00250 0.45000
C 	C 	0.49750 0.64887 0.14887 0.45000
C 	C 	0.50250 0.64887 -0.14887 0.45100
H 	H 	0.58570 0.58570 0.08570 0.31100
O 	O 	0.55820 0.55820 0.05820 -1.49400
H 	H 	0.41430 0.58570 -0.08570 0.31100
O 	O 	0.44180 0.55820 -0.05820 -1.49400
O 	O 	0.66732 0.41134 0.00176 -0.62800
O 	O 	0.33268 0.41134 -0.00176 -0.62800
O 	O 	0.58866 0.49824 0.16732 -0.62800
O 	O 	0.58866 0.50176 -0.16732 -0.62800
O 	O 	0.41134 0.49824 -0.16732 -0.62800
O 	O 	0.41134 0.50176 0.16732 -0.62800
O 	O 	0.50176 0.33268 0.08866 -0.62800
O 	O 	0.49824 0.33268 -0.08866 -0.62800
O 	O 	0.50176 0.41134 0.16732 -0.62800
O 	O 	0.49824 0.41134 -0.16732 -0.62800
O 	O 	0.66732 0.49824 0.08866 -0.62800
O 	O 	0.33268 0.50176 0.08866 -0.62800
O 	O 	0.33268 0.49824 -0.08866 -0.62800
O 	O 	0.66732 0.50176 -0.08866 -0.62800
O 	O 	0.58866 0.33268 0.00176 -0.62800
O 	O 	0.41134 0.33268 -0.00176 -0.62800
Zr	Zr	0.61466 0.50000 -0.00000 3.23200
Zr	Zr	0.38534 0.50000 -0.00000 3.23200
Zr	Zr	0.50000 0.50000 0.11466 3.23200
Zr	Zr	0.50000 0.50000 -0.11466 3.23200
Zr	Zr	0.50000 0.38534 -0.00000 3.23200
O 	O 	0.44137 0.44137 -0.05863 -1.26400
O 	O 	0.55863 0.44137 0.05863 -1.26400
C 	C 	0.64887 0.35113 0.00250 0.45000
C 	C 	0.35113 0.35113 -0.00250 0.45000
C 	C 	0.64887 0.49751 0.14887 0.45000
C 	C 	0.64887 0.50249 -0.14887 0.45100
C 	C 	0.35113 0.49750 -0.14887 0.45100
C 	C 	0.35113 0.50250 0.14887 0.45000
C 	C 	0.50249 0.35113 0.14887 0.45000
C 	C 	0.49751 0.35113 -0.14887 0.45100
H 	H 	0.41430 0.41430 0.08570 0.31100
O 	O 	0.44180 0.44180 0.05820 -1.49400
H 	H 	0.58570 0.41430 -0.08570 0.31100
O 	O 	0.55820 0.44180 -0.05820 -1.49400
O 	O 	-0.16732 0.58866 0.50176 -0.62800
O 	O 	0.16732 0.58866 0.49824 -0.62800
O 	O 	-0.00176 0.66732 0.58866 -0.62800
O 	O 	0.00176 0.66732 0.41134 -0.62800
O 	O 	0.00176 0.58866 0.33268 -0.62800
O 	O 	-0.00176 0.58866 0.66732 -0.62800
O 	O 	0.08866 0.66732 0.49824 -0.62800
O 	O 	-0.08866 0.66732 0.50176 -0.62800
Zr	Zr	0.00000 0.61466 0.50000 3.23200
O 	O 	0.05863 0.55863 0.44137 -1.26400
O 	O 	-0.05863 0.55863 0.55863 -1.26400
C 	C 	-0.14887 0.64887 0.50250 0.45100
C 	C 	0.14887 0.64887 0.49750 0.45000
C 	C 	-0.00249 0.64887 0.64887 0.45000
C 	C 	0.00249 0.64887 0.35113 0.45000
H 	H 	0.08570 0.58570 0.58570 0.31100
O 	O 	0.05820 0.55820 0.55820 -1.49400
H 	H 	-0.08570 0.58570 0.41430 0.31100
O 	O 	-0.05820 0.55820 0.44180 -1.49400
O 	O 	0.16732 0.41134 0.50176 -0.62800
O 	O 	-0.16732 0.41134 0.49824 -0.62800
O 	O 	0.08866 0.49824 0.66732 -0.62800
O 	O 	0.08866 0.50176 0.33268 -0.62800
O 	O 	-0.08866 0.49824 0.33268 -0.62800
O 	O 	-0.08866 0.50176 0.66732 -0.62800
O 	O 	0.00176 0.33268 0.58866 -0.62800
O 	O 	-0.00176 0.33268 0.41134 -0.62800
O 	O 	0.00176 0.41134 0.66732 -0.62800
O 	O 	-0.00176 0.41134 0.33268 -0.62800
O 	O 	0.16732 0.49824 0.58866 -0.62800
O 	O 	-0.16732 0.50176 0.58866 -0.62800
O 	O 	-0.16732 0.49824 0.41134 -0.62800
O 	O 	0.16732 0.50176 0.41134 -0.62800
O 	O 	0.08866 0.33268 0.50176 -0.62800
O 	O 	-0.08866 0.33268 0.49824 -0.62800
Zr	Zr	0.11466 0.50000 0.50000 3.23200
Zr	Zr	-0.11466 0.50000 0.50000 3.23200
Zr	Zr	0.00000 0.50000 0.61466 3.23200
Zr	Zr	-0.00000 0.50000 0.38534 3.23200
Zr	Zr	-0.00000 0.38534 0.50000 3.23200
O 	O 	-0.05863 0.44137 0.44137 -1.26400
O 	O 	0.05863 0.44137 0.55863 -1.26400
C 	C 	0.14887 0.35113 0.50249 0.45000
C 	C 	-0.14887 0.35113 0.49750 0.45100
C 	C 	0.14887 0.49750 0.64887 0.45000
C 	C 	0.14887 0.50250 0.35113 0.45000
C 	C 	-0.14887 0.49751 0.35113 0.45100
C 	C 	-0.14887 0.50249 0.64887 0.45100
C 	C 	0.00250 0.35113 0.64887 0.45000
C 	C 	-0.00250 0.35113 0.35113 0.45000
H 	H 	-0.08570 0.41430 0.58570 0.31100
O 	O 	-0.05820 0.44180 0.55820 -1.49400
H 	H 	0.08570 0.41430 0.41430 0.31100
O 	O 	0.05820 0.44180 0.44180 -1.49400
O 	O 	0.33268 0.08866 0.50176 -0.62800
O 	O 	0.66732 0.08866 0.49824 -0.62800
O 	O 	0.49824 0.16732 0.58866 -0.62800
O 	O 	0.50176 0.16732 0.41134 -0.62800
O 	O 	0.50176 0.08866 0.33268 -0.62800
O 	O 	0.49824 0.08866 0.66732 -0.62800
O 	O 	0.58866 0.16732 0.49824 -0.62800
O 	O 	0.41134 0.16732 0.50176 -0.62800
Zr	Zr	0.50000 0.11466 0.50000 3.23200
O 	O 	0.55863 0.05863 0.44137 -1.26400
O 	O 	0.44137 0.05863 0.55863 -1.26400
C 	C 	0.35113 0.14887 0.50250 0.45000
C 	C 	0.64887 0.14887 0.49750 0.45000
C 	C 	0.49751 0.14887 0.64887 0.45000
C 	C 	0.50249 0.14887 0.35113 0.45000
H 	H 	0.58570 0.08570 0.58570 0.31100
O 	O 	0.55820 0.05820 0.55820 -1.49400
H 	H 	0.41430 0.08570 0.41430 0.31100
O 	O 	0.44180 0.05820 0.44180 -1.49400
O 	O 	0.66732 -0.08866 0.50176 -0.62800
O 	O 	0.33268 -0.08866 0.49824 -0.62800
O 	O 	0.58866 -0.00176 0.66732 -0.62800
O 	O 	0.58866 0.00176 0.33268 -0.62800
O 	O 	0.41134 -0.00176 0.33268 -0.62800
O 	O 	0.41134 0.00176 0.66732 -0.62800
O 	O 	0.50176 -0.16732 0.58866 -0.62800
O 	O 	0.49824 -0.16732 0.41134 -0.62800
O 	O 	0.50176 -0.08866 0.66732 -0.62800
O 	O 	0.49824 -0.08866 0.33268 -0.62800
O 	O 	0.66732 -0.00176 0.58866 -0.62800
O 	O 	0.33268 0.00176 0.58866 -0.62800
O 	O 	0.33268 -0.00176 0.41134 -0.62800
O 	O 	0.66732 0.00176 0.41134 -0.62800
O 	O 	0.58866 -0.16732 0.50176 -0.62800
O 	O 	0.41134 -0.16732 0.49824 -0.62800
Zr	Zr	0.61466 -0.00000 0.50000 3.23200
Zr	Zr	0.38534 -0.00000 0.50000 3.23200
Zr	Zr	0.50000 -0.00000 0.61466 3.23200
Zr	Zr	0.50000 0.00000 0.38534 3.23200
Zr	Zr	0.50000 -0.11466 0.50000 3.23200
O 	O 	0.44137 -0.05863 0.44137 -1.26400
O 	O 	0.55863 -0.05863 0.55863 -1.26400
C 	C 	0.64887 -0.14887 0.50249 0.45100
C 	C 	0.35113 -0.14887 0.49750 0.45100
C 	C 	0.64887 -0.00250 0.64887 0.45000
C 	C 	0.64887 0.00250 0.35113 0.45000
C 	C 	0.35113 -0.00249 0.35113 0.45000
C 	C 	0.35113 0.00249 0.64887 0.45000
C 	C 	0.50250 -0.14887 0.64887 0.45100
C 	C 	0.49750 -0.14887 0.35113 0.45100
H 	H 	0.41430 -0.08570 0.58570 0.31100
O 	O 	0.44180 -0.05820 0.55820 -1.49400
H 	H 	0.58570 -0.08570 0.41430 0.31100
O 	O 	0.55820 -0.05820 0.44180 -1.49400
C 	C 	0.26694 0.18485 -0.00347 0.00200
C 	C 	0.20070 0.20070 -0.00332 -0.09300
C 	C 	0.18485 0.26694 -0.00347 0.00200
C 	C 	0.23306 0.31515 -0.00347 0.00200
C 	C 	0.29930 0.29930 -0.00332 -0.09300
C 	C 	0.31515 0.23306 -0.00347 0.00200
H 	H 	0.28182 0.13483 -0.00339 0.04700
H 	H 	0.13483 0.28182 -0.00339 0.04700
H 	H 	0.21818 0.36517 -0.00339 0.04700
H 	H 	0.36517 0.21818 -0.00339 0.04700
C 	C 	0.26694 0.68485 0.49653 0.00200
C 	C 	0.20070 0.70070 0.49668 -0.09300
C 	C 	0.18485 0.76694 0.49653 0.00200
C 	C 	0.23306 0.81515 0.49653 0.00300
C 	C 	0.29930 0.79930 0.49668 -0.09500
C 	C 	0.31515 0.73306 0.49653 0.00300
H 	H 	0.28182 0.63483 0.49661 0.04700
H 	H 	0.13483 0.78182 0.49661 0.04700
H 	H 	0.21818 0.86517 0.49661 0.04600
H 	H 	0.36517 0.71818 0.49661 0.04700
C 	C 	0.81515 0.73306 -0.00347 0.00300
C 	C 	0.79930 0.79930 -0.00332 -0.09700
C 	C 	0.73306 0.81515 -0.00347 0.00300
C 	C 	0.68485 0.76694 -0.00347 0.00200
C 	C 	0.70070 0.70070 -0.00332 -0.09300
C 	C 	0.76694 0.68485 -0.00347 0.00200
H 	H 	0.86517 0.71818 -0.00339 0.04600
H 	H 	0.71818 0.86517 -0.00339 0.04600
H 	H 	0.63483 0.78182 -0.00339 0.04700
H 	H 	0.78182 0.63483 -0.00339 0.04700
C 	C 	0.81515 0.23306 0.49653 0.00300
C 	C 	0.79930 0.29930 0.49668 -0.09500
C 	C 	0.73306 0.31515 0.49653 0.00300
C 	C 	0.68485 0.26694 0.49653 0.00200
C 	C 	0.70070 0.20070 0.49668 -0.09300
C 	C 	0.76694 0.18485 0.49653 0.00200
H 	H 	0.86517 0.21818 0.49661 0.04600
H 	H 	0.71818 0.36517 0.49661 0.04700
H 	H 	0.63483 0.28182 0.49661 0.04700
H 	H 	0.78182 0.13483 0.49661 0.04700
C 	C 	0.81515 0.26694 0.00347 0.00300
C 	C 	0.79930 0.20070 0.00332 -0.09500
C 	C 	0.73306 0.18485 0.00347 0.00300
C 	C 	0.68485 0.23306 0.00347 0.00200
C 	C 	0.70070 0.29930 0.00332 -0.09300
C 	C 	0.76694 0.31515 0.00347 0.00200
H 	H 	0.86517 0.28182 0.00339 0.04600
H 	H 	0.71818 0.13483 0.00339 0.04700
H 	H 	0.63483 0.21818 0.00339 0.04700
H 	H 	0.78182 0.36517 0.00339 0.04700
C 	C 	0.81515 0.76694 0.50347 0.00200
C 	C 	0.79930 0.70070 0.50332 -0.09500
C 	C 	0.73306 0.68485 0.50347 0.00200
C 	C 	0.68485 0.73306 0.50347 0.00200
C 	C 	0.70070 0.79930 0.50332 -0.09500
C 	C 	0.76694 0.81515 0.50347 0.00200
H 	H 	0.86517 0.78182 0.50339 0.04600
H 	H 	0.71818 0.63483 0.50339 0.04700
H 	H 	0.63483 0.71818 0.50339 0.04700
H 	H 	0.78182 0.86517 0.50339 0.04600
C 	C 	0.18485 0.23306 0.50347 0.00200
C 	C 	0.20070 0.29930 0.50332 -0.09300
C 	C 	0.26694 0.31515 0.50347 0.00200
C 	C 	0.31515 0.26694 0.50347 0.00200
C 	C 	0.29930 0.20070 0.50332 -0.09300
C 	C 	0.23306 0.18485 0.50347 0.00200
H 	H 	0.13483 0.21818 0.50339 0.04700
H 	H 	0.28182 0.36517 0.50339 0.04700
H 	H 	0.36517 0.28182 0.50339 0.04700
H 	H 	0.21818 0.13483 0.50339 0.04700
C 	C 	0.18485 0.73306 0.00347 0.00300
C 	C 	0.20070 0.79930 0.00332 -0.09500
C 	C 	0.26694 0.81515 0.00347 0.00300
C 	C 	0.31515 0.76694 0.00347 0.00200
C 	C 	0.29930 0.70070 0.00332 -0.09300
C 	C 	0.23306 0.68485 0.00347 0.00200
H 	H 	0.13483 0.71818 0.00339 0.04700
H 	H 	0.28182 0.86517 0.00339 0.04600
H 	H 	0.36517 0.78182 0.00339 0.04700
H 	H 	0.21818 0.63483 0.00339 0.04700
C 	C 	-0.00345 0.26694 0.18485 0.00200
C 	C 	-0.00332 0.20070 0.20070 -0.09300
C 	C 	-0.00348 0.18485 0.26694 0.00200
C 	C 	-0.00348 0.23306 0.31515 0.00200
C 	C 	-0.00332 0.29930 0.29930 -0.09300
C 	C 	-0.00345 0.31515 0.23306 0.00200
H 	H 	-0.00336 0.28182 0.13483 0.04700
H 	H 	-0.00342 0.13483 0.28182 0.04700
H 	H 	-0.00342 0.21818 0.36517 0.04700
H 	H 	-0.00336 0.36517 0.21818 0.04700
C 	C 	0.49653 0.31515 0.73306 0.00300
C 	C 	0.49668 0.29930 0.79930 -0.09500
C 	C 	0.49654 0.23306 0.81515 0.00300
C 	C 	0.49654 0.18485 0.76694 0.00200
C 	C 	0.49668 0.20070 0.70070 -0.09300
C 	C 	0.49653 0.26694 0.68485 0.00200
H 	H 	0.49660 0.36517 0.71818 0.04700
H 	H 	0.49662 0.21818 0.86517 0.04600
H 	H 	0.49662 0.13483 0.78182 0.04700
H 	H 	0.49660 0.28182 0.63483 0.04700
C 	C 	-0.00347 0.81515 0.73306 0.00300
C 	C 	-0.00332 0.79930 0.79930 -0.09700
C 	C 	-0.00346 0.73306 0.81515 0.00300
C 	C 	-0.00346 0.68485 0.76694 0.00200
C 	C 	-0.00332 0.70070 0.70070 -0.09300
C 	C 	-0.00347 0.76694 0.68485 0.00200
H 	H 	-0.00340 0.86517 0.71818 0.04600
H 	H 	-0.00338 0.71818 0.86517 0.04600
H 	H 	-0.00338 0.63483 0.78182 0.04700
H 	H 	-0.00340 0.78182 0.63483 0.04700
C 	C 	0.49655 0.76694 0.18485 0.00200
C 	C 	0.49668 0.70070 0.20070 -0.09300
C 	C 	0.49652 0.68485 0.26694 0.00200
C 	C 	0.49652 0.73306 0.31515 0.00300
C 	C 	0.49668 0.79930 0.29930 -0.09500
C 	C 	0.49655 0.81515 0.23306 0.00300
H 	H 	0.49664 0.78182 0.13483 0.04700
H 	H 	0.49658 0.63483 0.28182 0.04700
H 	H 	0.49658 0.71818 0.36517 0.04700
H 	H 	0.49664 0.86517 0.21818 0.04600
C 	C 	0.00346 0.81515 0.26694 0.00300
C 	C 	0.00332 0.79930 0.20070 -0.09500
C 	C 	0.00347 0.73306 0.18485 0.00300
C 	C 	0.00347 0.68485 0.23306 0.00200
C 	C 	0.00332 0.70070 0.29930 -0.09300
C 	C 	0.00346 0.76694 0.31515 0.00200
H 	H 	0.00338 0.86517 0.28182 0.04600
H 	H 	0.00340 0.71818 0.13483 0.04700
H 	H 	0.00340 0.63483 0.21818 0.04700
H 	H 	0.00338 0.78182 0.36517 0.04700
C 	C 	0.50348 0.76694 0.81515 0.00200
C 	C 	0.50332 0.70070 0.79930 -0.09500
C 	C 	0.50345 0.68485 0.73306 0.00200
C 	C 	0.50345 0.73306 0.68485 0.00200
C 	C 	0.50332 0.79930 0.70070 -0.09500
C 	C 	0.50348 0.81515 0.76694 0.00200
H 	H 	0.50342 0.78182 0.86517 0.04600
H 	H 	0.50336 0.63483 0.71818 0.04700
H 	H 	0.50336 0.71818 0.63483 0.04700
H 	H 	0.50342 0.86517 0.78182 0.04600
C 	C 	0.50346 0.31515 0.26694 0.00200
C 	C 	0.50332 0.29930 0.20070 -0.09300
C 	C 	0.50347 0.23306 0.18485 0.00200
C 	C 	0.50347 0.18485 0.23306 0.00200
C 	C 	0.50332 0.20070 0.29930 -0.09300
C 	C 	0.50346 0.26694 0.31515 0.00200
H 	H 	0.50338 0.36517 0.28182 0.04700
H 	H 	0.50340 0.21818 0.13483 0.04700
H 	H 	0.50340 0.13483 0.21818 0.04700
H 	H 	0.50338 0.28182 0.36517 0.04700
C 	C 	0.00348 0.26694 0.81515 0.00300
C 	C 	0.00332 0.20070 0.79930 -0.09500
C 	C 	0.00345 0.18485 0.73306 0.00300
C 	C 	0.00345 0.23306 0.68485 0.00200
C 	C 	0.00332 0.29930 0.70070 -0.09300
C 	C 	0.00348 0.31515 0.76694 0.00200
H 	H 	0.00342 0.28182 0.86517 0.04600
H 	H 	0.00336 0.13483 0.71818 0.04700
H 	H 	0.00336 0.21818 0.63483 0.04700
H 	H 	0.00342 0.36517 0.78182 0.04700
C 	C 	0.18485 -0.00346 0.26694 0.00200
C 	C 	0.20070 -0.00332 0.20070 -0.09300
C 	C 	0.26694 -0.00347 0.18485 0.00200
C 	C 	0.31515 -0.00347 0.23306 0.00200
C 	C 	0.29930 -0.00332 0.29930 -0.09300
C 	C 	0.23306 -0.00346 0.31515 0.00200
H 	H 	0.13483 -0.00339 0.28182 0.04700
H 	H 	0.28182 -0.00339 0.13483 0.04700
H 	H 	0.36517 -0.00339 0.21818 0.04700
H 	H 	0.21818 -0.00339 0.36517 0.04700
C 	C 	0.31515 0.49653 0.73306 0.00300
C 	C 	0.29930 0.49668 0.79930 -0.09500
C 	C 	0.23306 0.49654 0.81515 0.00300
C 	C 	0.18485 0.49654 0.76694 0.00200
C 	C 	0.20070 0.49668 0.70070 -0.09300
C 	C 	0.26694 0.49653 0.68485 0.00200
H 	H 	0.36517 0.49660 0.71818 0.04700
H 	H 	0.21818 0.49662 0.86517 0.04600
H 	H 	0.13483 0.49662 0.78182 0.04700
H 	H 	0.28182 0.49660 0.63483 0.04700
C 	C 	0.81515 -0.00347 0.73306 0.00300
C 	C 	0.79930 -0.00332 0.79930 -0.09700
C 	C 	0.73306 -0.00346 0.81515 0.00300
C 	C 	0.68485 -0.00346 0.76694 0.00200
C 	C 	0.70070 -0.00332 0.70070 -0.09300
C 	C 	0.76694 -0.00347 0.68485 0.00200
H 	H 	0.86517 -0.00340 0.71818 0.04600
H 	H 	0.71818 -0.00338 0.86517 0.04600
H 	H 	0.63483 -0.00338 0.78182 0.04700
H 	H 	0.78182 -0.00340 0.63483 0.04700
C 	C 	0.68485 0.49654 0.26694 0.00200
C 	C 	0.70070 0.49668 0.20070 -0.09300
C 	C 	0.76694 0.49653 0.18485 0.00200
C 	C 	0.81515 0.49653 0.23306 0.00300
C 	C 	0.79930 0.49668 0.29930 -0.09500
C 	C 	0.73306 0.49654 0.31515 0.00300
H 	H 	0.63483 0.49661 0.28182 0.04700
H 	H 	0.78182 0.49661 0.13483 0.04700
H 	H 	0.86517 0.49661 0.21818 0.04600
H 	H 	0.71818 0.49661 0.36517 0.04700
C 	C 	0.18485 0.00347 0.73306 0.00300
C 	C 	0.20070 0.00332 0.79930 -0.09500
C 	C 	0.26694 0.00346 0.81515 0.00300
C 	C 	0.31515 0.00346 0.76694 0.00200
C 	C 	0.29930 0.00332 0.70070 -0.09300
C 	C 	0.23306 0.00347 0.68485 0.00200
H 	H 	0.13483 0.00339 0.71818 0.04700
H 	H 	0.28182 0.00339 0.86517 0.04600
H 	H 	0.36517 0.00339 0.78182 0.04700
H 	H 	0.21818 0.00339 0.63483 0.04700
C 	C 	0.31515 0.50346 0.26694 0.00200
C 	C 	0.29930 0.50332 0.20070 -0.09300
C 	C 	0.23306 0.50347 0.18485 0.00200
C 	C 	0.18485 0.50347 0.23306 0.00200
C 	C 	0.20070 0.50332 0.29930 -0.09300
C 	C 	0.26694 0.50346 0.31515 0.00200
H 	H 	0.36517 0.50338 0.28182 0.04700
H 	H 	0.21818 0.50340 0.13483 0.04700
H 	H 	0.13483 0.50340 0.21818 0.04700
H 	H 	0.28182 0.50338 0.36517 0.04700
C 	C 	0.81515 0.00346 0.26694 0.00300
C 	C 	0.79930 0.00332 0.20070 -0.09500
C 	C 	0.73306 0.00347 0.18485 0.00300
C 	C 	0.68485 0.00347 0.23306 0.00200
C 	C 	0.70070 0.00332 0.29930 -0.09300
C 	C 	0.76694 0.00346 0.31515 0.00200
H 	H 	0.86517 0.00338 0.28182 0.04600
H 	H 	0.71818 0.00340 0.13483 0.04700
H 	H 	0.63483 0.00340 0.21818 0.04700
H 	H 	0.78182 0.00338 0.36517 0.04700
C 	C 	0.68485 0.50347 0.73306 0.00200
C 	C 	0.70070 0.50332 0.79930 -0.09500
C 	C 	0.76694 0.50346 0.81515 0.00200
C 	C 	0.81515 0.50346 0.76694 0.00200
C 	C 	0.79930 0.50332 0.70070 -0.09500
C 	C 	0.73306 0.50347 0.68485 0.00200
H 	H 	0.63483 0.50339 0.71818 0.04700
H 	H 	0.78182 0.50339 0.86517 0.04600
H 	H 	0.86517 0.50339 0.78182 0.04600
H 	H 	0.71818 0.50339 0.63483 0.04700
